New line.2362312 phases = 3 bus1 = BT_642133.1.2.0 bus2 = BT_642133.1.2.4 
~ length = 0.5 units = m 
~ linecode = BT518_BT518_7_2_1

New line.2362319 phases = 3 bus1 = BT_642140.1.2.4 bus2 = BT_642133.1.2.4 
~ length = 26.4 units = m 
~ linecode = BT108_BT108_7_2_1

New line.2362326 phases = 3 bus1 = BT_642168.1.2.4 bus2 = BT_642133.1.2.4 
~ length = 33.105 units = m 
~ linecode = BT108_BT108_7_2_1

New line.2362361 phases = 3 bus1 = BT_642147.1.2.4 bus2 = BT_642140.1.2.4 
~ length = 32.695 units = m 
~ linecode = BT108_BT108_7_2_1

New line.2362382 phases = 3 bus1 = BT_642154.1.2.4 bus2 = BT_642147.1.2.4 
~ length = 34.828 units = m 
~ linecode = BT106_BT106_7_2_1

New line.2362431 phases = 3 bus1 = BT_642161.1.2.4 bus2 = BT_642154.1.2.4 
~ length = 30.479 units = m 
~ linecode = BT106_BT106_7_2_1

New line.2362452 phases = 3 bus1 = BT_5994382.1.2.4 bus2 = BT_642161.1.2.4 
~ length = 24.515 units = m 
~ linecode = BT808_BT808_4_2_3

New line.2362473 phases = 3 bus1 = BT_642175.1.2.4 bus2 = BT_642168.1.2.4 
~ length = 35.341 units = m 
~ linecode = BT108_BT108_7_2_1

New line.2362487 phases = 3 bus1 = BT_642182.1.2.4 bus2 = BT_642175.1.2.4 
~ length = 36.248 units = m 
~ linecode = BT801_BT801_4_2_3

New line.2362494 phases = 3 bus1 = BT_642287.1.2.4 bus2 = BT_642182.1.2.4 
~ length = 40.853 units = m 
~ linecode = BT808_BT808_4_2_3

New line.2362508 phases = 3 bus1 = BT_642189.1.2.0 bus2 = BT_642189.1.2.4 
~ length = 0.5 units = m 
~ linecode = BT507_BT507_7_2_1

New line.2362515 phases = 3 bus1 = BT_642196.1.2.4 bus2 = BT_642189.1.2.4 
~ length = 33.837 units = m 
~ linecode = BT107_BT106_7_2_1

New line.2362522 phases = 3 bus1 = BT_642210.1.2.4 bus2 = BT_642189.1.2.4 
~ length = 34.669 units = m 
~ linecode = BT107_BT106_7_2_1

New line.2362543 phases = 3 bus1 = BT_642203.1.2.4 bus2 = BT_642196.1.2.4 
~ length = 36.055 units = m 
~ linecode = BT107_BT106_7_2_1

New line.2362564 phases = 3 bus1 = BT_642182.1.2.4 bus2 = BT_642203.1.2.4 
~ length = 34.669 units = m 
~ linecode = BT801_BT801_4_2_3

New line.2362585 phases = 3 bus1 = BT_642217.1.2.4 bus2 = BT_642210.1.2.4 
~ length = 35.227 units = m 
~ linecode = BT107_BT106_7_2_1

New line.2362634 phases = 3 bus1 = BT_642224.1.2.4 bus2 = BT_642217.1.2.4 
~ length = 39.407 units = m 
~ linecode = BT107_BT106_7_2_1

New line.2362697 phases = 3 bus1 = BT_642238.1.2.0 bus2 = BT_642238.1.2.4 
~ length = 0.5 units = m 
~ linecode = BT315_BT315_7_2_1

New line.2362704 phases = 3 bus1 = BT_642245.1.2.4 bus2 = BT_642238.1.2.4 
~ length = 38.078 units = m 
~ linecode = BT107_BT106_7_2_1

New line.2362711 phases = 3 bus1 = BT_642294.1.2.4 bus2 = BT_642238.1.2.4 
~ length = 39.924 units = m 
~ linecode = BT107_BT106_7_2_1

New line.2362753 phases = 3 bus1 = BT_642252.1.2.4 bus2 = BT_642245.1.2.4 
~ length = 39.445 units = m 
~ linecode = BT107_BT106_7_2_1

New line.2362760 phases = 3 bus1 = BT_642273.1.2.4 bus2 = BT_642245.1.2.4 
~ length = 42.543 units = m 
~ linecode = BT107_BT106_7_2_1

New line.2362781 phases = 3 bus1 = BT_642259.1.2.4 bus2 = BT_642252.1.2.4 
~ length = 38.832 units = m 
~ linecode = BT107_BT106_7_2_1

New line.2362809 phases = 3 bus1 = BT_642266.1.2.4 bus2 = BT_642259.1.2.4 
~ length = 38.012 units = m 
~ linecode = BT107_BT106_7_2_1

New line.2362837 phases = 3 bus1 = BT_642280.1.2.4 bus2 = BT_642273.1.2.4 
~ length = 39.924 units = m 
~ linecode = BT107_BT106_7_2_1

New line.2362865 phases = 3 bus1 = BT_642287.1.2.4 bus2 = BT_642280.1.2.4 
~ length = 39.395 units = m 
~ linecode = BT107_BT106_7_2_1

New line.2362907 phases = 3 bus1 = BT_642301.1.2.4 bus2 = BT_642294.1.2.4 
~ length = 37.695 units = m 
~ linecode = BT107_BT106_7_2_1

New line.2362928 phases = 3 bus1 = BT_642308.1.2.4 bus2 = BT_642301.1.2.4 
~ length = 42.543 units = m 
~ linecode = BT107_BT106_7_2_1

New line.2362956 phases = 3 bus1 = BT_642315.1.2.4 bus2 = BT_642308.1.2.4 
~ length = 40.718 units = m 
~ linecode = BT107_BT106_7_2_1

New line.2363068 phases = 3 bus1 = BT_642336.1.2.0 bus2 = BT_642336.1.2.4 
~ length = 0.5 units = m 
~ linecode = BT507_BT507_7_2_1

New line.2363075 phases = 3 bus1 = BT_642343.1.2.4 bus2 = BT_642336.1.2.4 
~ length = 41.23 units = m 
~ linecode = BT108_BT107_7_2_1

New line.2363082 phases = 3 bus1 = BT_642350.1.2.4 bus2 = BT_642336.1.2.4 
~ length = 40.261 units = m 
~ linecode = BT108_BT107_7_2_1

New line.2363117 phases = 3 bus1 = BT_642378.1.2.4 bus2 = BT_642343.1.2.4 
~ length = 25.06 units = m 
~ linecode = BT108_BT107_7_2_1

New line.2363131 phases = 3 bus1 = BT_642357.1.2.4 bus2 = BT_642350.1.2.4 
~ length = 25.495 units = m 
~ linecode = BT106_BT106_7_2_1

New line.2363159 phases = 3 bus1 = BT_642392.1.2.4 bus2 = BT_642357.1.2.4 
~ length = 14.142 units = m 
~ linecode = BT801_BT801_4_2_3

New line.2363173 phases = 3 bus1 = BT_642371.1.2.4 bus2 = BT_642364.1.2.4 
~ length = 31.764 units = m 
~ linecode = BT801_BT801_4_2_3

New line.2363208 phases = 3 bus1 = BT_4841559.1.2.4 bus2 = BT_642371.1.2.4 
~ length = 29.206 units = m 
~ linecode = BT808_BT808_4_2_3

New line.2363236 phases = 3 bus1 = BT_5174871.1.2.4 bus2 = BT_642378.1.2.4 
~ length = 32.31 units = m 
~ linecode = BT808_BT808_4_2_3

New line.2363243 phases = 3 bus1 = BT_5746057.1.2.4 bus2 = BT_642378.1.2.4 
~ length = 52.999 units = m 
~ linecode = BT107_BT106_7_2_1

New line.2363278 phases = 3 bus1 = BT_642399.1.2.4 bus2 = BT_642392.1.2.4 
~ length = 19.105 units = m 
~ linecode = BT801_BT801_4_2_3

New line.2363306 phases = 3 bus1 = BT_642364.1.2.4 bus2 = BT_642399.1.2.4 
~ length = 9.22 units = m 
~ linecode = BT801_BT801_4_2_3

New line.2363334 phases = 3 bus1 = BT_642406.1.2.0 bus2 = BT_642406.1.2.4 
~ length = 0.5 units = m 
~ linecode = BT507_BT507_7_2_1

New line.2363341 phases = 3 bus1 = BT_642413.1.2.4 bus2 = BT_642406.1.2.4 
~ length = 31.764 units = m 
~ linecode = BT108_BT108_7_2_1

New line.2363348 phases = 3 bus1 = BT_642427.1.2.4 bus2 = BT_642406.1.2.4 
~ length = 25.709 units = m 
~ linecode = BT108_BT108_7_2_1

New line.2363355 phases = 3 bus1 = BT_642434.1.2.4 bus2 = BT_642406.1.2.4 
~ length = 38.587 units = m 
~ linecode = BT107_BT107_7_2_1

New line.2363397 phases = 3 bus1 = BT_3682821.1.2.4 bus2 = BT_642427.1.2.4 
~ length = 28.017 units = m 
~ linecode = BT808_BT808_4_2_3

New line.2363446 phases = 3 bus1 = BT_642441.1.2.0 bus2 = BT_642441.1.2.4 
~ length = 0.5 units = m 
~ linecode = BT518_BT518_7_2_1

New line.2363453 phases = 3 bus1 = BT_642448.1.2.4 bus2 = BT_642441.1.2.4 
~ length = 22.671 units = m 
~ linecode = BT107_BT106_7_2_1

New line.2363460 phases = 3 bus1 = BT_642455.1.2.4 bus2 = BT_642441.1.2.4 
~ length = 55.46 units = m 
~ linecode = BT107_BT106_7_2_1

New line.2363502 phases = 3 bus1 = BT_642462.1.2.0 bus2 = BT_642462.1.2.4 
~ length = 0.5 units = m 
~ linecode = BT518_BT518_7_2_1

New line.2363509 phases = 3 bus1 = BT_642469.1.2.4 bus2 = BT_642462.1.2.4 
~ length = 27.513 units = m 
~ linecode = BT108_BT108_7_2_1

New line.2363516 phases = 3 bus1 = BT_642511.1.2.4 bus2 = BT_642462.1.2.4 
~ length = 32.015 units = m 
~ linecode = BT108_BT108_7_2_1

New line.2363537 phases = 3 bus1 = BT_642476.1.2.4 bus2 = BT_642469.1.2.4 
~ length = 23.769 units = m 
~ linecode = BT108_BT108_7_2_1

New line.2363565 phases = 3 bus1 = BT_642434.1.2.4 bus2 = BT_642476.1.2.4 
~ length = 32.248 units = m 
~ linecode = BT107_BT107_7_2_1

New line.2363572 phases = 3 bus1 = BT_642483.1.2.4 bus2 = BT_642476.1.2.4 
~ length = 16.401 units = m 
~ linecode = BT107_BT107_7_2_1

New line.2363607 phases = 3 bus1 = BT_7688991.1.2.4 bus2 = BT_642483.1.2.4 
~ length = 12.166 units = m 
~ linecode = BT107_BT107_7_2_1

New line.2363642 phases = 3 bus1 = BT_642497.1.2.4 bus2 = BT_642490.1.2.4 
~ length = 21.024 units = m 
~ linecode = BT107_BT107_7_2_1

New line.2363663 phases = 3 bus1 = BT_642546.1.2.4 bus2 = BT_642497.1.2.4 
~ length = 30.594 units = m 
~ linecode = BT107_BT107_7_2_1

New line.2363698 phases = 3 bus1 = BT_642518.1.2.4 bus2 = BT_642511.1.2.4 
~ length = 27.459 units = m 
~ linecode = BT108_BT108_7_2_1

New line.2363719 phases = 3 bus1 = BT_642525.1.2.4 bus2 = BT_642518.1.2.4 
~ length = 34.481 units = m 
~ linecode = BT108_BT108_7_2_1

New line.2363740 phases = 3 bus1 = BT_642532.1.2.4 bus2 = BT_642525.1.2.4 
~ length = 38.909 units = m 
~ linecode = BT108_BT108_7_2_1

New line.2363789 phases = 3 bus1 = BT_5415573.1.2.4 bus2 = BT_642539.1.2.4 
~ length = 18.111 units = m 
~ linecode = BT808_BT808_4_2_3

New line.2363796 phases = 3 bus1 = BT_6069485.1.2.4 bus2 = BT_642539.1.2.4 
~ length = 44.821 units = m 
~ linecode = BT808_BT808_4_2_3

New line.2363831 phases = 3 bus1 = BT_3975918.1.2.4 bus2 = BT_642553.1.2.4 
~ length = 26.4 units = m 
~ linecode = BT808_BT808_4_2_3

New line.2363859 phases = 3 bus1 = BT_642588.1.2.4 bus2 = BT_642560.1.2.4 
~ length = 41.011 units = m 
~ linecode = BT108_BT107_7_2_1

New line.2363894 phases = 3 bus1 = BT_5174822.1.2.4 bus2 = BT_642567.1.2.4 
~ length = 27.294 units = m 
~ linecode = BT108_BT107_7_2_1

New line.2363915 phases = 3 bus1 = BT_642567.1.2.4 bus2 = BT_642574.1.2.4 
~ length = 34.928 units = m 
~ linecode = BT108_BT107_7_2_1

New line.2363922 phases = 3 bus1 = BT_642574.1.2.0 bus2 = BT_642574.1.2.4 
~ length = 0.5 units = m 
~ linecode = BT513_BT513_7_2_1

New line.2363929 phases = 3 bus1 = BT_642581.1.2.4 bus2 = BT_642574.1.2.4 
~ length = 45.879 units = m 
~ linecode = BT108_BT107_7_2_1

New line.2363950 phases = 3 bus1 = BT_5174836.1.2.4 bus2 = BT_642581.1.2.4 
~ length = 41.048 units = m 
~ linecode = BT807_BT807_4_2_3

New line.2363985 phases = 3 bus1 = BT_642595.1.2.4 bus2 = BT_642588.1.2.4 
~ length = 35.227 units = m 
~ linecode = BT108_BT107_7_2_1

New line.2364083 phases = 3 bus1 = BT_642609.1.2.4 bus2 = BT_642616.1.2.4 
~ length = 41.772 units = m 
~ linecode = BT807_BT807_4_2_3

New line.2364104 phases = 3 bus1 = BT_642616.1.2.4 bus2 = BT_642623.1.2.4 
~ length = 32.015 units = m 
~ linecode = BT807_BT807_4_2_3

New line.2364125 phases = 3 bus1 = BT_642623.1.2.4 bus2 = BT_642630.1.2.4 
~ length = 39.407 units = m 
~ linecode = BT807_BT807_4_2_3

New line.2364132 phases = 3 bus1 = BT_642630.1.2.0 bus2 = BT_642630.1.2.4 
~ length = 0.5 units = m 
~ linecode = BT518_BT518_7_2_1

New line.2364139 phases = 3 bus1 = BT_642637.1.2.4 bus2 = BT_642630.1.2.4 
~ length = 30.87 units = m 
~ linecode = BT808_BT808_4_2_3

New line.2364146 phases = 3 bus1 = BT_642644.1.2.4 bus2 = BT_642630.1.2.4 
~ length = 36.248 units = m 
~ linecode = BT807_BT807_4_2_3

New line.2364160 phases = 3 bus1 = BT_642651.1.2.4 bus2 = BT_642637.1.2.4 
~ length = 41.109 units = m 
~ linecode = BT808_BT808_4_2_3

New line.2364188 phases = 3 bus1 = BT_642658.1.2.4 bus2 = BT_642644.1.2.4 
~ length = 36.4 units = m 
~ linecode = BT808_BT808_4_2_3

New line.2364216 phases = 3 bus1 = BT_642700.1.2.4 bus2 = BT_642651.1.2.4 
~ length = 41.109 units = m 
~ linecode = BT107_BT106_7_2_1

New line.2364223 phases = 3 bus1 = BT_642742.1.2.4 bus2 = BT_642651.1.2.4 
~ length = 36.124 units = m 
~ linecode = BT107_BT106_7_2_1

New line.2364265 phases = 3 bus1 = BT_642686.1.2.4 bus2 = BT_642672.1.2.4 
~ length = 44.552 units = m 
~ linecode = BT107_BT106_7_2_1

New line.2364286 phases = 3 bus1 = BT_642672.1.2.4 bus2 = BT_642679.1.2.4 
~ length = 39.622 units = m 
~ linecode = BT107_BT106_7_2_1

New line.2364328 phases = 3 bus1 = BT_642679.1.2.4 bus2 = BT_642693.1.2.4 
~ length = 35.383 units = m 
~ linecode = BT107_BT106_7_2_1

New line.2364335 phases = 3 bus1 = BT_642707.1.2.4 bus2 = BT_642693.1.2.4 
~ length = 35.383 units = m 
~ linecode = BT107_BT106_7_2_1

New line.2364377 phases = 3 bus1 = BT_642686.1.2.4 bus2 = BT_642700.1.2.4 
~ length = 41.724 units = m 
~ linecode = BT107_BT106_7_2_1

New line.2364405 phases = 3 bus1 = BT_642693.1.2.4 bus2 = BT_642714.1.2.4 
~ length = 42.449 units = m 
~ linecode = BT108_BT107_7_2_1

New line.2364412 phases = 3 bus1 = BT_642714.1.2.0 bus2 = BT_642714.1.2.4 
~ length = 0.5 units = m 
~ linecode = BT513_BT513_7_2_1

New line.2364419 phases = 3 bus1 = BT_642735.1.2.4 bus2 = BT_642714.1.2.4 
~ length = 35.355 units = m 
~ linecode = BT108_BT107_7_2_1

New line.2364433 phases = 3 bus1 = BT_642651.1.2.4 bus2 = BT_642721.1.2.4 
~ length = 38.209 units = m 
~ linecode = BT107_BT106_7_2_1

New line.2364468 phases = 3 bus1 = BT_642721.1.2.4 bus2 = BT_642728.1.2.4 
~ length = 36.055 units = m 
~ linecode = BT107_BT106_7_2_1

New line.2364489 phases = 3 bus1 = BT_642728.1.2.4 bus2 = BT_642735.1.2.4 
~ length = 19.849 units = m 
~ linecode = BT107_BT106_7_2_1

New line.2364531 phases = 3 bus1 = BT_642749.1.2.0 bus2 = BT_642749.1.2.4 
~ length = 0.5 units = m 
~ linecode = BT507_BT507_7_2_1

New line.2364538 phases = 3 bus1 = BT_642756.1.2.4 bus2 = BT_642749.1.2.4 
~ length = 46.096 units = m 
~ linecode = BT108_BT107_7_2_1

New line.2364545 phases = 3 bus1 = BT_642777.1.2.4 bus2 = BT_642749.1.2.4 
~ length = 55.316 units = m 
~ linecode = BT108_BT107_7_2_1

New line.2364559 phases = 3 bus1 = BT_642763.1.2.4 bus2 = BT_642756.1.2.4 
~ length = 64.279 units = m 
~ linecode = BT108_BT107_7_2_1

New line.2364573 phases = 3 bus1 = BT_642770.1.2.4 bus2 = BT_642763.1.2.4 
~ length = 65.144 units = m 
~ linecode = BT106_BT106_7_2_1

New line.2364594 phases = 3 bus1 = BT_643071.1.2.4 bus2 = BT_642770.1.2.4 
~ length = 64.844 units = m 
~ linecode = BT106_BT106_7_2_1

New line.2364629 phases = 3 bus1 = BT_642791.1.2.4 bus2 = BT_642784.1.2.4 
~ length = 41.676 units = m 
~ linecode = BT107_BT107_7_2_1

New line.2364762 phases = 3 bus1 = BT_642826.1.2.4 bus2 = BT_642819.1.2.4 
~ length = 36.069 units = m 
~ linecode = BT107_BT106_7_2_1

New line.2364790 phases = 3 bus1 = BT_642819.1.2.4 bus2 = BT_642833.1.2.4 
~ length = 39.597 units = m 
~ linecode = BT108_BT108_7_2_1

New line.2364804 phases = 3 bus1 = BT_642833.1.2.4 bus2 = BT_642840.1.2.4 
~ length = 37.482 units = m 
~ linecode = BT108_BT108_7_2_1

New line.2364825 phases = 3 bus1 = BT_642840.1.2.4 bus2 = BT_642847.1.2.4 
~ length = 28.999 units = m 
~ linecode = BT108_BT108_7_2_1

New line.2364832 phases = 3 bus1 = BT_642847.1.2.0 bus2 = BT_642847.1.2.4 
~ length = 0.5 units = m 
~ linecode = BT518_BT518_7_2_1

New line.2364839 phases = 3 bus1 = BT_642854.1.2.4 bus2 = BT_642847.1.2.4 
~ length = 42.425 units = m 
~ linecode = BT108_BT108_7_2_1

New line.2364860 phases = 3 bus1 = BT_642861.1.2.4 bus2 = BT_642854.1.2.4 
~ length = 33.94 units = m 
~ linecode = BT108_BT108_7_2_1

New line.2364867 phases = 3 bus1 = BT_642868.1.2.4 bus2 = BT_642854.1.2.4 
~ length = 38.209 units = m 
~ linecode = BT107_BT107_7_2_1

New line.2364881 phases = 3 bus1 = BT_642875.1.2.4 bus2 = BT_642861.1.2.4 
~ length = 36.769 units = m 
~ linecode = BT108_BT108_7_2_1

New line.2364909 phases = 3 bus1 = BT_5657101.1.2.4 bus2 = BT_642868.1.2.4 
~ length = 21.26 units = m 
~ linecode = BT808_BT808_4_2_3

New line.2365000 phases = 3 bus1 = BT_642889.1.2.4 bus2 = BT_642903.1.2.4 
~ length = 39.597 units = m 
~ linecode = BT107_BT106_7_2_1

New line.2365007 phases = 3 bus1 = BT_642917.1.2.4 bus2 = BT_642903.1.2.4 
~ length = 35.383 units = m 
~ linecode = BT107_BT106_7_2_1

New line.2365042 phases = 3 bus1 = BT_642910.1.2.4 bus2 = BT_642896.1.2.4 
~ length = 38.183 units = m 
~ linecode = BT808_BT808_4_2_3

New line.2365091 phases = 3 bus1 = BT_642903.1.2.4 bus2 = BT_642924.1.2.4 
~ length = 33.94 units = m 
~ linecode = BT107_BT106_7_2_1

New line.2365112 phases = 3 bus1 = BT_642910.1.2.4 bus2 = BT_642931.1.2.4 
~ length = 33.97 units = m 
~ linecode = BT107_BT106_7_2_1

New line.2365126 phases = 3 bus1 = BT_642924.1.2.4 bus2 = BT_642938.1.2.4 
~ length = 35.355 units = m 
~ linecode = BT108_BT107_7_2_1

New line.2365140 phases = 3 bus1 = BT_642931.1.2.4 bus2 = BT_642945.1.2.4 
~ length = 27.513 units = m 
~ linecode = BT107_BT106_7_2_1

New line.2365147 phases = 3 bus1 = BT_642973.1.2.4 bus2 = BT_642945.1.2.4 
~ length = 27.513 units = m 
~ linecode = BT808_BT808_4_2_3

New line.2365168 phases = 3 bus1 = BT_642938.1.2.4 bus2 = BT_642952.1.2.4 
~ length = 33.241 units = m 
~ linecode = BT108_BT107_7_2_1

New line.2365175 phases = 3 bus1 = BT_642952.1.2.0 bus2 = BT_642952.1.2.4 
~ length = 0.5 units = m 
~ linecode = BT513_BT513_7_2_1

New line.2365182 phases = 3 bus1 = BT_642959.1.2.4 bus2 = BT_642952.1.2.4 
~ length = 34.655 units = m 
~ linecode = BT108_BT107_7_2_1

New line.2365196 phases = 3 bus1 = BT_642945.1.2.4 bus2 = BT_642959.1.2.4 
~ length = 48.548 units = m 
~ linecode = BT107_BT106_7_2_1

New line.2365203 phases = 3 bus1 = BT_642966.1.2.4 bus2 = BT_642959.1.2.4 
~ length = 30.016 units = m 
~ linecode = BT108_BT107_7_2_1

New line.2365245 phases = 3 bus1 = BT_5902178.1.2.4 bus2 = BT_642973.1.2.4 
~ length = 31.622 units = m 
~ linecode = BT808_BT808_4_2_3

New line.2365266 phases = 3 bus1 = BT_642980.1.2.4 bus2 = BT_3535478.1.2.4 
~ length = 34.655 units = m 
~ linecode = BT801_BT801_4_2_3

New line.2365308 phases = 3 bus1 = BT_642826.1.2.4 bus2 = BT_642987.1.2.4 
~ length = 34.712 units = m 
~ linecode = BT107_BT106_7_2_1

New line.2365315 phases = 3 bus1 = BT_642987.1.2.4 bus2 = BT_642980.1.2.4 
~ length = 33.241 units = m 
~ linecode = BT801_BT801_4_2_3

New line.2365322 phases = 3 bus1 = BT_643001.1.2.4 bus2 = BT_642987.1.2.4 
~ length = 37.013 units = m 
~ linecode = BT808_BT808_4_2_3

New line.2365336 phases = 3 bus1 = BT_642987.1.2.4 bus2 = BT_642994.1.2.4 
~ length = 41.724 units = m 
~ linecode = BT107_BT107_7_2_1

New line.2365378 phases = 3 bus1 = BT_642840.1.2.4 bus2 = BT_643008.1.2.4 
~ length = 36.796 units = m 
~ linecode = BT107_BT106_7_2_1

New line.2365399 phases = 3 bus1 = BT_642994.1.2.4 bus2 = BT_643015.1.2.4 
~ length = 36.796 units = m 
~ linecode = BT107_BT107_7_2_1

New line.2365406 phases = 3 bus1 = BT_643008.1.2.4 bus2 = BT_643015.1.2.4 
~ length = 34.058 units = m 
~ linecode = BT107_BT106_7_2_1

New line.2365427 phases = 3 bus1 = BT_643015.1.2.4 bus2 = BT_643022.1.2.4 
~ length = 38.183 units = m 
~ linecode = BT107_BT107_7_2_1

New line.2365434 phases = 3 bus1 = BT_643022.1.2.0 bus2 = BT_643022.1.2.4 
~ length = 0.5 units = m 
~ linecode = BT513_BT513_7_2_1

New line.2365441 phases = 3 bus1 = BT_643029.1.2.4 bus2 = BT_643022.1.2.4 
~ length = 39.597 units = m 
~ linecode = BT108_BT108_7_2_1

New line.2365448 phases = 3 bus1 = BT_643036.1.2.4 bus2 = BT_643029.1.2.4 
~ length = 35.383 units = m 
~ linecode = BT108_BT108_7_2_1

New line.2365469 phases = 3 bus1 = BT_643050.1.2.4 bus2 = BT_643036.1.2.4 
~ length = 40.31 units = m 
~ linecode = BT108_BT108_7_2_1

New line.2365490 phases = 3 bus1 = BT_6004602.1.2.4 bus2 = BT_643043.1.2.4 
~ length = 29.832 units = m 
~ linecode = BT808_BT808_4_2_3

New line.2365525 phases = 3 bus1 = BT_643043.1.2.4 bus2 = BT_643050.1.2.4 
~ length = 34.539 units = m 
~ linecode = BT107_BT106_7_2_1

New line.2365539 phases = 3 bus1 = BT_643057.1.2.0 bus2 = BT_643057.1.2.4 
~ length = 0.5 units = m 
~ linecode = BT518_BT518_7_2_1

New line.2365546 phases = 3 bus1 = BT_643064.1.2.4 bus2 = BT_643057.1.2.4 
~ length = 57.217 units = m 
~ linecode = BT108_BT107_7_2_1

New line.2365553 phases = 3 bus1 = BT_643099.1.2.4 bus2 = BT_643057.1.2.4 
~ length = 51.155 units = m 
~ linecode = BT108_BT107_7_2_1

New line.2365581 phases = 3 bus1 = BT_643071.1.2.4 bus2 = BT_643064.1.2.4 
~ length = 50.802 units = m 
~ linecode = BT108_BT107_7_2_1

New line.2365707 phases = 3 bus1 = BT_643106.1.2.4 bus2 = BT_643099.1.2.4 
~ length = 56.434 units = m 
~ linecode = BT107_BT107_7_2_1

New line.2365714 phases = 3 bus1 = BT_9118534.1.2.4 bus2 = BT_643099.1.2.4 
~ length = 45.397 units = m 
~ linecode = BT107_BT107_7_2_1

New line.2365721 phases = 3 bus1 = BT_643155.1.2.4 bus2 = BT_643099.1.2.4 
~ length = 63.889 units = m 
~ linecode = BT808_BT808_4_2_3

New line.2365735 phases = 3 bus1 = BT_643113.1.2.4 bus2 = BT_643106.1.2.4 
~ length = 58.692 units = m 
~ linecode = BT107_BT107_7_2_1

New line.2365770 phases = 3 bus1 = BT_643120.1.2.4 bus2 = BT_643113.1.2.4 
~ length = 59.074 units = m 
~ linecode = BT107_BT107_7_2_1

New line.2365798 phases = 3 bus1 = BT_643127.1.2.4 bus2 = BT_643120.1.2.4 
~ length = 60.015 units = m 
~ linecode = BT107_BT107_7_2_1

New line.2365812 phases = 3 bus1 = BT_643141.1.2.4 bus2 = BT_643127.1.2.4 
~ length = 46.614 units = m 
~ linecode = BT107_BT107_7_2_1

New line.2365868 phases = 3 bus1 = BT_9118535.1.2.4 bus2 = BT_643148.1.2.4 
~ length = 35.056 units = m 
~ linecode = BT107_BT107_7_2_1

New line.2366470 phases = 3 bus1 = BT_643330.1.2.4 bus2 = BT_643337.1.2.4 
~ length = 29.41 units = m 
~ linecode = BT107_BT106_7_2_1

New line.2366491 phases = 3 bus1 = BT_643344.1.2.4 bus2 = BT_6009768.1.2.4 
~ length = 29.427 units = m 
~ linecode = BT808_BT808_4_2_3

New line.2366512 phases = 3 bus1 = BT_643337.1.2.4 bus2 = BT_643351.1.2.4 
~ length = 28.301 units = m 
~ linecode = BT107_BT106_7_2_1

New line.2366533 phases = 3 bus1 = BT_643351.1.2.4 bus2 = BT_643358.1.2.4 
~ length = 30.413 units = m 
~ linecode = BT107_BT106_7_2_1

New line.2366547 phases = 3 bus1 = BT_643358.1.2.4 bus2 = BT_643365.1.2.4 
~ length = 37.12 units = m 
~ linecode = BT107_BT106_7_2_1

New line.2366568 phases = 4 bus1 = BT_643372.1.2.3.4 bus2 = BT_643379.1.2.3.4 
~ length = 31.015 units = m 
~ linecode = BT803_BT803_4_3_4

New line.2366610 phases = 4 bus1 = BT_643379.1.2.3.4 bus2 = BT_643400.1.2.3.4 
~ length = 35.127 units = m 
~ linecode = BT803_BT803_4_3_4

New line.2366631 phases = 3 bus1 = BT_643365.1.2.4 bus2 = BT_643386.1.2.4 
~ length = 34.928 units = m 
~ linecode = BT108_BT107_7_2_1

New line.2366659 phases = 3 bus1 = BT_643372.1.2.4 bus2 = BT_643393.1.2.4 
~ length = 39.204 units = m 
~ linecode = BT108_BT107_7_2_1

New line.2366722 phases = 3 bus1 = BT_643386.1.2.4 bus2 = BT_643407.1.2.4 
~ length = 40.049 units = m 
~ linecode = BT108_BT107_7_2_1

New line.2366729 phases = 3 bus1 = BT_643393.1.2.4 bus2 = BT_643407.1.2.4 
~ length = 40.999 units = m 
~ linecode = BT108_BT107_7_2_1

New line.2366736 phases = 3 bus1 = BT_643407.1.2.0 bus2 = BT_643407.1.2.4 
~ length = 0.5 units = m 
~ linecode = BT518_BT518_7_2_1

New line.2366764 phases = 3 bus1 = BT_643414.1.2.0 bus2 = BT_643414.1.2.4 
~ length = 0.5 units = m 
~ linecode = BT518_BT518_7_2_1

New line.2366771 phases = 3 bus1 = BT_643421.1.2.4 bus2 = BT_643414.1.2.4 
~ length = 32.572 units = m 
~ linecode = BT807_BT807_4_2_3

New line.2366778 phases = 3 bus1 = BT_643442.1.2.4 bus2 = BT_643414.1.2.4 
~ length = 72.799 units = m 
~ linecode = BT808_BT808_4_2_3

New line.2366785 phases = 3 bus1 = BT_643463.1.2.4 bus2 = BT_643414.1.2.4 
~ length = 70.878 units = m 
~ linecode = BT807_BT807_4_2_3

New line.2366806 phases = 3 bus1 = BT_643428.1.2.4 bus2 = BT_643421.1.2.4 
~ length = 32.572 units = m 
~ linecode = BT808_BT808_4_2_3

New line.2366820 phases = 3 bus1 = BT_643435.1.2.4 bus2 = BT_643428.1.2.4 
~ length = 58.82 units = m 
~ linecode = BT808_BT808_4_2_3

New line.2366855 phases = 3 bus1 = BT_643449.1.2.4 bus2 = BT_643442.1.2.4 
~ length = 74.462 units = m 
~ linecode = BT107_BT107_7_2_1

New line.2366869 phases = 3 bus1 = BT_643456.1.2.4 bus2 = BT_643449.1.2.4 
~ length = 70.091 units = m 
~ linecode = BT107_BT107_7_2_1

New line.2366918 phases = 3 bus1 = BT_643470.1.2.4 bus2 = BT_643463.1.2.4 
~ length = 69.919 units = m 
~ linecode = BT808_BT808_4_2_3

New line.2366932 phases = 3 bus1 = BT_643477.1.2.0 bus2 = BT_643470.1.2.4 
~ length = 69.919 units = m 
~ linecode = BT807_BT807_4_2_3

New line.2366953 phases = 4 bus1 = BT_643477.1.2.3.0 bus2 = BT_643477.1.2.3.4 
~ length = 0.5 units = m 
~ linecode = BT513_BT513_7_3_1

New line.2366960 phases = 3 bus1 = BT_643484.1.2.4 bus2 = BT_643477.1.2.4 
~ length = 69.424 units = m 
~ linecode = BT807_BT807_4_2_3

New line.2366981 phases = 3 bus1 = BT_817987.1.2.4 bus2 = BT_643484.1.2.4 
~ length = 25.317 units = m 
~ linecode = BT807_BT807_4_2_3

New line.2367009 phases = 4 bus1 = BT_643512.1.2.3.4 bus2 = BT_643491.1.2.3.4 
~ length = 24.758 units = m 
~ linecode = BT803_BT803_4_3_4

New line.2367023 phases = 4 bus1 = BT_643491.1.2.3.4 bus2 = BT_643498.1.2.3.4 
~ length = 31.4 units = m 
~ linecode = BT803_BT803_4_3_4

New line.2367030 phases = 4 bus1 = BT_643498.1.2.3.0 bus2 = BT_643498.1.2.3.4 
~ length = 0.5 units = m 
~ linecode = BT518_BT518_7_3_1

New line.2367037 phases = 4 bus1 = BT_643505.1.2.3.4 bus2 = BT_643498.1.2.3.4 
~ length = 43.415 units = m 
~ linecode = BT803_BT803_4_3_4

New line.2367058 phases = 4 bus1 = BT_643519.1.2.3.4 bus2 = BT_643505.1.2.3.4 
~ length = 34.481 units = m 
~ linecode = BT803_BT803_4_3_4

New line.2367072 phases = 4 bus1 = BT_643533.1.2.3.4 bus2 = BT_643512.1.2.3.4 
~ length = 34.481 units = m 
~ linecode = BT803_BT803_4_3_4

New line.2367100 phases = 4 bus1 = BT_643526.1.2.3.4 bus2 = BT_643519.1.2.3.4 
~ length = 33.135 units = m 
~ linecode = BT803_BT803_4_3_4

New line.2367135 phases = 4 bus1 = BT_643554.1.2.3.4 bus2 = BT_643526.1.2.3.4 
~ length = 24.758 units = m 
~ linecode = BT803_BT803_4_3_4

New line.2367170 phases = 4 bus1 = BT_643540.1.2.3.4 bus2 = BT_643533.1.2.3.4 
~ length = 25.709 units = m 
~ linecode = BT803_BT803_4_3_4

New line.2367184 phases = 4 bus1 = BT_643547.1.2.3.4 bus2 = BT_643540.1.2.3.4 
~ length = 18.439 units = m 
~ linecode = BT803_BT803_4_3_4

New line.2367198 phases = 4 bus1 = BT_3534610.1.2.3.4 bus2 = BT_643547.1.2.3.4 
~ length = 21.954 units = m 
~ linecode = BT803_BT803_4_3_4

New line.2367219 phases = 4 bus1 = BT_643400.1.2.3.4 bus2 = BT_643554.1.2.3.4 
~ length = 13.892 units = m 
~ linecode = BT803_BT803_4_3_4

New line.2367422 phases = 3 bus1 = BT_643617.1.2.4 bus2 = BT_643610.1.2.4 
~ length = 37.013 units = m 
~ linecode = BT801_BT801_4_2_3

New line.2367429 phases = 3 bus1 = BT_643939.1.2.4 bus2 = BT_643610.1.2.4 
~ length = 24.02 units = m 
~ linecode = BT809_BT809_4_2_4

New line.2367450 phases = 3 bus1 = BT_643624.1.2.4 bus2 = BT_643617.1.2.4 
~ length = 35.227 units = m 
~ linecode = BT801_BT801_4_2_3

New line.2367492 phases = 3 bus1 = BT_643610.1.2.4 bus2 = BT_643631.1.2.4 
~ length = 34.885 units = m 
~ linecode = BT807_BT807_4_2_3

New line.2367499 phases = 3 bus1 = BT_643631.1.2.0 bus2 = BT_643631.1.2.4 
~ length = 0.5 units = m 
~ linecode = BT513_BT513_7_2_1

New line.2367506 phases = 3 bus1 = BT_643638.1.2.4 bus2 = BT_643631.1.2.4 
~ length = 35.804 units = m 
~ linecode = BT807_BT807_4_2_3

New line.2367534 phases = 3 bus1 = BT_643645.1.2.4 bus2 = BT_643638.1.2.4 
~ length = 28.999 units = m 
~ linecode = BT801_BT801_4_2_3

New line.2367562 phases = 3 bus1 = BT_643652.1.2.4 bus2 = BT_643645.1.2.4 
~ length = 33.241 units = m 
~ linecode = BT801_BT801_4_2_3

New line.2367576 phases = 3 bus1 = BT_6020912.1.2.4 bus2 = BT_643652.1.2.4 
~ length = 36.4 units = m 
~ linecode = BT808_BT808_4_2_3

New line.2367590 phases = 3 bus1 = BT_643659.1.2.0 bus2 = BT_643659.1.2.4 
~ length = 0.5 units = m 
~ linecode = BT518_BT518_7_2_1

New line.2367597 phases = 3 bus1 = BT_643680.1.2.4 bus2 = BT_643659.1.2.4 
~ length = 69.063 units = m 
~ linecode = BT107_BT107_7_2_1

New line.2367604 phases = 3 bus1 = BT_643708.1.2.4 bus2 = BT_643659.1.2.4 
~ length = 68.247 units = m 
~ linecode = BT107_BT107_7_2_1

New line.2367611 phases = 3 bus1 = BT_3985949.1.2.4 bus2 = BT_643659.1.2.4 
~ length = 32.649 units = m 
~ linecode = BT808_BT808_4_2_3

New line.2367660 phases = 3 bus1 = BT_643687.1.2.4 bus2 = BT_643680.1.2.4 
~ length = 69.632 units = m 
~ linecode = BT107_BT107_7_2_1

New line.2367681 phases = 3 bus1 = BT_643694.1.2.4 bus2 = BT_643687.1.2.4 
~ length = 70.453 units = m 
~ linecode = BT107_BT107_7_2_1

New line.2367702 phases = 3 bus1 = BT_643701.1.2.4 bus2 = BT_643694.1.2.4 
~ length = 70.212 units = m 
~ linecode = BT107_BT107_7_2_1

New line.2367730 phases = 3 bus1 = BT_643715.1.2.4 bus2 = BT_643708.1.2.4 
~ length = 63.251 units = m 
~ linecode = BT108_BT107_7_2_1

New line.2367793 phases = 3 bus1 = BT_3738996.1.2.4 bus2 = BT_643722.1.2.4 
~ length = 41.108 units = m 
~ linecode = BT808_BT808_4_2_3

New line.2367821 phases = 3 bus1 = BT_643722.1.2.4 bus2 = BT_643729.1.2.4 
~ length = 34.481 units = m 
~ linecode = BT107_BT107_7_2_1

New line.2367828 phases = 3 bus1 = BT_643736.1.2.4 bus2 = BT_643729.1.2.4 
~ length = 38.896 units = m 
~ linecode = BT107_BT107_7_2_1

New line.2367863 phases = 3 bus1 = BT_643743.1.2.4 bus2 = BT_643736.1.2.4 
~ length = 39.216 units = m 
~ linecode = BT107_BT107_7_2_1

New line.2367905 phases = 3 bus1 = BT_643729.1.2.4 bus2 = BT_643750.1.2.4 
~ length = 36.687 units = m 
~ linecode = BT108_BT107_7_2_1

New line.2367919 phases = 3 bus1 = BT_643750.1.2.4 bus2 = BT_643757.1.2.4 
~ length = 34.481 units = m 
~ linecode = BT108_BT107_7_2_1

New line.2367926 phases = 3 bus1 = BT_643757.1.2.0 bus2 = BT_643757.1.2.4 
~ length = 0.5 units = m 
~ linecode = BT513_BT513_7_2_1

New line.2367940 phases = 3 bus1 = BT_643778.1.2.4 bus2 = BT_643757.1.2.4 
~ length = 34.481 units = m 
~ linecode = BT108_BT107_7_2_1

New line.2367968 phases = 4 bus1 = BT_643764.1.2.3.4 bus2 = BT_643771.1.2.3.4 
~ length = 37.642 units = m 
~ linecode = BT803_BT803_4_3_4

New line.2368003 phases = 3 bus1 = BT_643785.1.2.4 bus2 = BT_643778.1.2.4 
~ length = 35.734 units = m 
~ linecode = BT108_BT107_7_2_1
