New line.946317 phases = 3 bus1 = 642133 bus2 = 642140 
~ length = 26.4 units = m 
~ linecode = CAB103_3_1

New line.946324 phases = 3 bus1 = 642140 bus2 = 642147 
~ length = 32.695 units = m 
~ linecode = CAB103_3_1

New line.946331 phases = 3 bus1 = 642147 bus2 = 642154 
~ length = 34.828 units = m 
~ linecode = CAB103_3_1

New line.946338 phases = 3 bus1 = 642147 bus2 = 5780721 
~ length = 62.007 units = m 
~ linecode = CAB103_3_1

New line.946345 phases = 3 bus1 = 642154 bus2 = 642161 
~ length = 30.479 units = m 
~ linecode = CAB103_3_1

New line.946352 phases = 3 bus1 = 642161 bus2 = 5994382 
~ length = 24.515 units = m 
~ linecode = CAB102_3_1

New line.946366 phases = 3 bus1 = 642168 bus2 = 642133 
~ length = 33.105 units = m 
~ linecode = CAB103_3_1

New line.946373 phases = 3 bus1 = 642175 bus2 = 642168 
~ length = 35.341 units = m 
~ linecode = CAB103_3_1

New line.946380 phases = 3 bus1 = 642182 bus2 = 642175 
~ length = 36.248 units = m 
~ linecode = CAB103_3_1

New line.946387 phases = 3 bus1 = 642182 bus2 = 642203 
~ length = 34.669 units = m 
~ linecode = CAB102_3_1

New line.946401 phases = 3 bus1 = 642196 bus2 = 642189 
~ length = 33.837 units = m 
~ linecode = CAB102_3_1

New line.946408 phases = 3 bus1 = 642203 bus2 = 642196 
~ length = 36.055 units = m 
~ linecode = CAB102_3_1

New line.946450 phases = 3 bus1 = 642238 bus2 = 642245 
~ length = 38.078 units = m 
~ linecode = CAB202_3_1

New line.946471 phases = 3 bus1 = 642245 bus2 = 642273 
~ length = 42.543 units = m 
~ linecode = CAB202_3_1

New line.946520 phases = 3 bus1 = 642273 bus2 = 642280 
~ length = 39.924 units = m 
~ linecode = CAB202_3_1

New line.946541 phases = 3 bus1 = 642280 bus2 = 642287 
~ length = 39.395 units = m 
~ linecode = CAB202_3_1

New line.946562 phases = 3 bus1 = 642287 bus2 = 642182 
~ length = 40.853 units = m 
~ linecode = CAB202_3_1

New line.946576 phases = 3 bus1 = 642294 bus2 = 642238 
~ length = 39.924 units = m 
~ linecode = CAB202_3_1

New line.946590 phases = 3 bus1 = 642301 bus2 = 642294 
~ length = 37.695 units = m 
~ linecode = CAB202_3_1

New line.946604 phases = 3 bus1 = 642308 bus2 = 642301 
~ length = 42.543 units = m 
~ linecode = CAB202_3_1

New line.946611 phases = 3 bus1 = 642315 bus2 = 642308 
~ length = 40.718 units = m 
~ linecode = CAB202_3_1

New line.946646 phases = 3 bus1 = 642336 bus2 = 642350 
~ length = 40.261 units = m 
~ linecode = CAB102_3_1

New line.946653 phases = 3 bus1 = 642343 bus2 = 642336 
~ length = 41.23 units = m 
~ linecode = CAB102_3_1

New line.946667 phases = 3 bus1 = 642350 bus2 = 642357 
~ length = 25.495 units = m 
~ linecode = CAB102_3_1

New line.946681 phases = 3 bus1 = 642357 bus2 = 2291683 
~ length = 14.318 units = m 
~ linecode = CAB102_3_1

New line.946737 phases = 3 bus1 = 642378 bus2 = 642343 
~ length = 25.06 units = m 
~ linecode = CAB102_3_1

New line.946751 phases = 3 bus1 = 642385 bus2 = 5746057 
~ length = 12.083 units = m 
~ linecode = CAB202_3_1

New line.946828 phases = 3 bus1 = 642434 bus2 = 642406 
~ length = 38.587 units = m 
~ linecode = CAB102_3_1

New line.946849 phases = 3 bus1 = 642441 bus2 = 2291746 
~ length = 31.78 units = m 
~ linecode = CAB102_3_1

New line.946884 phases = 3 bus1 = 642455 bus2 = 642441 
~ length = 55.46 units = m 
~ linecode = CAB102_3_1

New line.946905 phases = 3 bus1 = 642462 bus2 = 642469 
~ length = 27.513 units = m 
~ linecode = CAB102_3_1

New line.946926 phases = 3 bus1 = 642469 bus2 = 642476 
~ length = 23.769 units = m 
~ linecode = CAB102_3_1

New line.946954 phases = 3 bus1 = 642476 bus2 = 642434 
~ length = 32.248 units = m 
~ linecode = CAB102_3_1

New line.946961 phases = 3 bus1 = 642476 bus2 = 642483 
~ length = 16.401 units = m 
~ linecode = CAB102_3_1

New line.947017 phases = 3 bus1 = 642490 bus2 = 642497 
~ length = 21.024 units = m 
~ linecode = CAB102_3_1

New line.947038 phases = 3 bus1 = 642497 bus2 = 642546 
~ length = 30.594 units = m 
~ linecode = CAB102_3_1

New line.947066 phases = 3 bus1 = 642511 bus2 = 642462 
~ length = 32.015 units = m 
~ linecode = CAB102_3_1

New line.947080 phases = 3 bus1 = 642518 bus2 = 642511 
~ length = 27.459 units = m 
~ linecode = CAB102_3_1

New line.947101 phases = 3 bus1 = 642525 bus2 = 642518 
~ length = 34.481 units = m 
~ linecode = CAB102_3_1

New line.947122 phases = 3 bus1 = 642532 bus2 = 642525 
~ length = 38.909 units = m 
~ linecode = CAB102_3_1

New line.947143 phases = 3 bus1 = 642539 bus2 = 5687250 
~ length = 27.892 units = m 
~ linecode = CAB102_3_1

New line.947164 phases = 3 bus1 = 642546 bus2 = 642539 
~ length = 30.413 units = m 
~ linecode = CAB102_3_1

New line.947206 phases = 3 bus1 = 642560 bus2 = 642588 
~ length = 41.011 units = m 
~ linecode = CAB202_3_1

New line.947227 phases = 3 bus1 = 642567 bus2 = 642574 
~ length = 34.928 units = m 
~ linecode = CAB202_3_1

New line.947234 phases = 3 bus1 = 642567 bus2 = 5174822 
~ length = 27.294 units = m 
~ linecode = CAB202_3_1

New line.947255 phases = 3 bus1 = 642574 bus2 = 642581 
~ length = 45.879 units = m 
~ linecode = CAB202_3_1

New line.947276 phases = 3 bus1 = 642581 bus2 = 642385 
~ length = 44.384 units = m 
~ linecode = CAB202_3_1

New line.947311 phases = 3 bus1 = 642588 bus2 = 642595 
~ length = 35.227 units = m 
~ linecode = CAB102_3_1

New line.947332 phases = 3 bus1 = 642595 bus2 = 800116 
~ length = 28.071 units = m 
~ linecode = CAB103_3_1

New line.947409 phases = 3 bus1 = 642637 bus2 = 642630 
~ length = 30.87 units = m 
~ linecode = CAB103_3_1

New line.947437 phases = 3 bus1 = 642651 bus2 = 642637 
~ length = 41.109 units = m 
~ linecode = CAB103_3_1

New line.947472 phases = 3 bus1 = 642693 bus2 = 642707 
~ length = 35.383 units = m 
~ linecode = CAB103_3_1

New line.947493 phases = 3 bus1 = 642707 bus2 = 642819 
~ length = 34.204 units = m 
~ linecode = CAB103_3_1

New line.947500 phases = 3 bus1 = 642714 bus2 = 642693 
~ length = 42.449 units = m 
~ linecode = CAB102_3_1

New line.947514 phases = 3 bus1 = 642721 bus2 = 642651 
~ length = 38.209 units = m 
~ linecode = CAB103_3_1

New line.947528 phases = 3 bus1 = 642728 bus2 = 642721 
~ length = 36.055 units = m 
~ linecode = CAB103_3_1

New line.947535 phases = 3 bus1 = 642735 bus2 = 642714 
~ length = 35.355 units = m 
~ linecode = CAB102_3_1

New line.947542 phases = 3 bus1 = 642735 bus2 = 642728 
~ length = 19.849 units = m 
~ linecode = CAB102_3_1

New line.947549 phases = 3 bus1 = 642735 bus2 = 642889 
~ length = 38.896 units = m 
~ linecode = CAB102_3_1

New line.947563 phases = 3 bus1 = 642756 bus2 = 642749 
~ length = 46.096 units = m 
~ linecode = CAB102_3_1

New line.947584 phases = 3 bus1 = 642763 bus2 = 642756 
~ length = 64.279 units = m 
~ linecode = CAB102_3_1

New line.947598 phases = 3 bus1 = 642770 bus2 = 642763 
~ length = 65.144 units = m 
~ linecode = CAB102_3_1

New line.947668 phases = 3 bus1 = 642819 bus2 = 642826 
~ length = 36.069 units = m 
~ linecode = CAB103_3_1

New line.947675 phases = 3 bus1 = 642819 bus2 = 642833 
~ length = 39.597 units = m 
~ linecode = CAB102_3_1

New line.947696 phases = 3 bus1 = 642826 bus2 = 642987 
~ length = 34.712 units = m 
~ linecode = CAB103_3_1

New line.947710 phases = 3 bus1 = 642833 bus2 = 642840 
~ length = 37.482 units = m 
~ linecode = CAB102_3_1

New line.947724 phases = 3 bus1 = 642840 bus2 = 642847 
~ length = 28.999 units = m 
~ linecode = CAB102_3_1

New line.947759 phases = 3 bus1 = 642889 bus2 = 642903 
~ length = 39.597 units = m 
~ linecode = CAB102_3_1

New line.947780 phases = 3 bus1 = 642924 bus2 = 642903 
~ length = 33.94 units = m 
~ linecode = CAB102_3_1

New line.947822 phases = 3 bus1 = 642938 bus2 = 642924 
~ length = 35.355 units = m 
~ linecode = CAB102_3_1

New line.947850 phases = 3 bus1 = 642952 bus2 = 642938 
~ length = 33.241 units = m 
~ linecode = CAB102_3_1

New line.947871 phases = 3 bus1 = 642959 bus2 = 642952 
~ length = 34.655 units = m 
~ linecode = CAB102_3_1

New line.947885 phases = 3 bus1 = 642966 bus2 = 642959 
~ length = 30.016 units = m 
~ linecode = CAB102_3_1

New line.947899 phases = 3 bus1 = 642987 bus2 = 642994 
~ length = 41.724 units = m 
~ linecode = CAB102_3_1

New line.947906 phases = 3 bus1 = 642994 bus2 = 643015 
~ length = 36.796 units = m 
~ linecode = CAB102_3_1

New line.947920 phases = 3 bus1 = 643015 bus2 = 643022 
~ length = 38.183 units = m 
~ linecode = CAB102_3_1

New line.947941 phases = 3 bus1 = 643057 bus2 = 643064 
~ length = 57.217 units = m 
~ linecode = CAB102_3_1

New line.947955 phases = 3 bus1 = 643064 bus2 = 643071 
~ length = 50.802 units = m 
~ linecode = CAB102_3_1

New line.947969 phases = 3 bus1 = 643071 bus2 = 642770 
~ length = 64.844 units = m 
~ linecode = CAB102_3_1

New line.947976 phases = 3 bus1 = 643071 bus2 = 2291676 
~ length = 37.215 units = m 
~ linecode = CAB202_3_1

New line.948018 phases = 3 bus1 = 643099 bus2 = 643057 
~ length = 51.155 units = m 
~ linecode = CAB102_3_1

New line.948025 phases = 3 bus1 = 643099 bus2 = 643106 
~ length = 56.434 units = m 
~ linecode = CAB102_3_3

New line.948032 phases = 3 bus1 = 643099 bus2 = 643155 
~ length = 63.889 units = m 
~ linecode = CABA06_3_3

New line.948039 phases = 3 bus1 = 643106 bus2 = 643113 
~ length = 58.692 units = m 
~ linecode = CAB102_3_3

New line.948046 phases = 3 bus1 = 643113 bus2 = 643120 
~ length = 59.074 units = m 
~ linecode = CAB102_3_3

New line.948053 phases = 3 bus1 = 643120 bus2 = 643127 
~ length = 60.015 units = m 
~ linecode = CAB103_3_3

New line.948060 phases = 3 bus1 = 643127 bus2 = 643141 
~ length = 46.614 units = m 
~ linecode = CAB102_3_3

New line.948067 phases = 3 bus1 = 643141 bus2 = 2291669 
~ length = 66.217 units = m 
~ linecode = CAB102_3_3

New line.948081 phases = 3 bus1 = 643155 bus2 = 643435 
~ length = 63.889 units = m 
~ linecode = CABA06_3_3

New line.948172 phases = 3 bus1 = 643253 bus2 = 642966 
~ length = 29.966 units = m 
~ linecode = CAB102_3_1

New line.948186 phases = 3 bus1 = 643260 bus2 = 643253 
~ length = 10.63 units = m 
~ linecode = CAB102_3_1

New line.948200 phases = 3 bus1 = 643267 bus2 = 643260 
~ length = 23.769 units = m 
~ linecode = CAB102_3_1

New line.948221 phases = 3 bus1 = 643274 bus2 = 643267 
~ length = 39.05 units = m 
~ linecode = CAB102_3_1

New line.948228 phases = 3 bus1 = 643274 bus2 = 3102682 
~ length = 4.123 units = m 
~ linecode = CAB102_3_1

New line.948340 phases = 3 bus1 = 643330 bus2 = 643274 
~ length = 24.596 units = m 
~ linecode = CAB102_3_1

New line.948361 phases = 3 bus1 = 643337 bus2 = 643330 
~ length = 29.41 units = m 
~ linecode = CAB102_3_1

New line.948375 phases = 3 bus1 = 643344 bus2 = 6009768 
~ length = 29.427 units = m 
~ linecode = CABA06_3_1

New line.948389 phases = 3 bus1 = 643351 bus2 = 643337 
~ length = 28.301 units = m 
~ linecode = CAB102_3_1

New line.948410 phases = 3 bus1 = 643358 bus2 = 643351 
~ length = 30.413 units = m 
~ linecode = CAB102_3_1

New line.948424 phases = 3 bus1 = 643365 bus2 = 643358 
~ length = 37.12 units = m 
~ linecode = CAB102_3_1

New line.948445 phases = 3 bus1 = 643372 bus2 = 643393 
~ length = 39.204 units = m 
~ linecode = CAB102_3_1

New line.948466 phases = 3 bus1 = 643379 bus2 = 643372 
~ length = 31.015 units = m 
~ linecode = CAB102_3_1

New line.948473 phases = 3 bus1 = 643386 bus2 = 643365 
~ length = 34.928 units = m 
~ linecode = CAB102_3_1

New line.948494 phases = 3 bus1 = 643393 bus2 = 643407 
~ length = 40.999 units = m 
~ linecode = CAB102_3_1

New line.948508 phases = 3 bus1 = 643400 bus2 = 643379 
~ length = 35.127 units = m 
~ linecode = CAB102_3_1

New line.948522 phases = 3 bus1 = 643400 bus2 = 6527341 
~ length = 16.279 units = m 
~ linecode = CAB103_3_1

New line.948536 phases = 3 bus1 = 643407 bus2 = 643386 
~ length = 40.049 units = m 
~ linecode = CAB102_3_1

New line.948543 phases = 3 bus1 = 643414 bus2 = 643463 
~ length = 70.878 units = m 
~ linecode = CABA06_3_3

New line.948557 phases = 3 bus1 = 643421 bus2 = 643414 
~ length = 32.572 units = m 
~ linecode = CABA06_3_3

New line.948564 phases = 3 bus1 = 643428 bus2 = 643421 
~ length = 32.572 units = m 
~ linecode = CABA06_3_3

New line.948578 phases = 3 bus1 = 643435 bus2 = 643428 
~ length = 58.82 units = m 
~ linecode = CABA06_3_3

New line.948620 phases = 3 bus1 = 643463 bus2 = 643470 
~ length = 69.919 units = m 
~ linecode = CABA06_3_3

New line.948634 phases = 3 bus1 = 643470 bus2 = 643477 
~ length = 69.919 units = m 
~ linecode = CABA06_3_3

New line.948655 phases = 3 bus1 = 643477 bus2 = 643484 
~ length = 69.424 units = m 
~ linecode = CABA06_3_3

New line.948669 phases = 3 bus1 = 643484 bus2 = 817987 
~ length = 25.317 units = m 
~ linecode = CABA06_3_3

New line.948690 phases = 3 bus1 = 643491 bus2 = 643498 
~ length = 31.4 units = m 
~ linecode = CABA06_3_3

New line.948704 phases = 3 bus1 = 643498 bus2 = 643505 
~ length = 43.415 units = m 
~ linecode = CABA06_3_3

New line.948732 phases = 3 bus1 = 643505 bus2 = 643519 
~ length = 34.481 units = m 
~ linecode = CAB103_3_1

New line.948739 phases = 3 bus1 = 643512 bus2 = 643491 
~ length = 24.758 units = m 
~ linecode = CABA06_3_3

New line.948753 phases = 3 bus1 = 643519 bus2 = 643526 
~ length = 33.135 units = m 
~ linecode = CAB103_3_1

New line.948767 phases = 3 bus1 = 643526 bus2 = 643554 
~ length = 24.758 units = m 
~ linecode = CAB102_3_1

New line.948781 phases = 3 bus1 = 643533 bus2 = 643512 
~ length = 34.481 units = m 
~ linecode = CABA06_3_3

New line.948795 phases = 3 bus1 = 643540 bus2 = 643533 
~ length = 25.709 units = m 
~ linecode = CABA06_3_3

New line.948809 phases = 3 bus1 = 643547 bus2 = 643540 
~ length = 18.439 units = m 
~ linecode = CABA06_3_3

New line.948823 phases = 3 bus1 = 643554 bus2 = 643400 
~ length = 13.892 units = m 
~ linecode = CAB102_3_1

New line.948956 phases = 3 bus1 = 643610 bus2 = 643631 
~ length = 34.885 units = m 
~ linecode = CAB103_3_1

New line.948963 phases = 3 bus1 = 643610 bus2 = 2291837 
~ length = 25.553 units = m 
~ linecode = CAB102_3_3

New line.948998 phases = 3 bus1 = 643631 bus2 = 643638 
~ length = 35.804 units = m 
~ linecode = CAB103_3_1

New line.949012 phases = 3 bus1 = 643638 bus2 = 793410 
~ length = 78.445 units = m 
~ linecode = CAB103_3_1

New line.949019 phases = 3 bus1 = 643638 bus2 = 2291858 
~ length = 156.18 units = m 
~ linecode = CAB202_3_1

New line.949040 phases = 3 bus1 = 643659 bus2 = 3985949 
~ length = 32.649 units = m 
~ linecode = CAB103_3_3

New line.949047 phases = 3 bus1 = 643666 bus2 = 643673 
~ length = 70.254 units = m 
~ linecode = CAB103_3_3

New line.949068 phases = 3 bus1 = 643708 bus2 = 643659 
~ length = 68.247 units = m 
~ linecode = CAB102_3_3

New line.949096 phases = 3 bus1 = 643715 bus2 = 643708 
~ length = 63.251 units = m 
~ linecode = CAB102_3_3

New line.949278 phases = 3 bus1 = 643806 bus2 = 2291872 
~ length = 34.928 units = m 
~ linecode = CAB204_3_3

New line.949306 phases = 3 bus1 = 643813 bus2 = 643806 
~ length = 32.572 units = m 
~ linecode = CAB104_3_3

New line.949327 phases = 3 bus1 = 643820 bus2 = 643813 
~ length = 35.734 units = m 
~ linecode = CAB104_3_3

New line.949341 phases = 3 bus1 = 643827 bus2 = 643820 
~ length = 36.687 units = m 
~ linecode = CAB104_3_3

New line.949355 phases = 3 bus1 = 643834 bus2 = 794761 
~ length = 23.769 units = m 
~ linecode = CAB102_3_1

New line.949369 phases = 3 bus1 = 643841 bus2 = 643834 
~ length = 29.427 units = m 
~ linecode = CAB102_3_1

New line.949383 phases = 3 bus1 = 643848 bus2 = 643841 
~ length = 31.064 units = m 
~ linecode = CAB102_3_1

New line.949397 phases = 3 bus1 = 643862 bus2 = 643848 
~ length = 21.633 units = m 
~ linecode = CAB102_3_1

New line.949411 phases = 3 bus1 = 643869 bus2 = 643862 
~ length = 29.681 units = m 
~ linecode = CAB102_3_1

New line.949432 phases = 3 bus1 = 643883 bus2 = 643869 
~ length = 32.695 units = m 
~ linecode = CAB102_3_3

New line.949460 phases = 3 bus1 = 643904 bus2 = 643883 
~ length = 36.138 units = m 
~ linecode = CAB102_3_3

New line.949467 phases = 3 bus1 = 643918 bus2 = 643904 
~ length = 32.756 units = m 
~ linecode = CAB102_3_3

New line.949481 phases = 3 bus1 = 643925 bus2 = 643918 
~ length = 32.756 units = m 
~ linecode = CAB102_3_3

New line.949488 phases = 3 bus1 = 643932 bus2 = 643925 
~ length = 31.78 units = m 
~ linecode = CAB102_3_3

New line.949495 phases = 3 bus1 = 643939 bus2 = 643610 
~ length = 24.02 units = m 
~ linecode = CAB102_3_3

New line.949509 phases = 3 bus1 = 643946 bus2 = 643939 
~ length = 30.413 units = m 
~ linecode = CAB102_3_3

New line.949530 phases = 3 bus1 = 643953 bus2 = 643946 
~ length = 34.524 units = m 
~ linecode = CAB102_3_3

New line.949572 phases = 3 bus1 = 643974 bus2 = 643953 
~ length = 33.376 units = m 
~ linecode = CAB102_3_3

New line.949593 phases = 3 bus1 = 643981 bus2 = 643974 
~ length = 37.335 units = m 
~ linecode = CAB102_3_3

New line.949600 phases = 3 bus1 = 643988 bus2 = 643981 
~ length = 31.144 units = m 
~ linecode = CAB102_3_3

New line.949607 phases = 3 bus1 = 643995 bus2 = 643988 
~ length = 35.013 units = m 
~ linecode = CAB102_3_3

New line.949614 phases = 3 bus1 = 643995 bus2 = 644093 
~ length = 37.107 units = m 
~ linecode = CAB102_3_1

New line.949621 phases = 3 bus1 = 644002 bus2 = 643995 
~ length = 28.635 units = m 
~ linecode = CAB102_3_3

New line.949628 phases = 3 bus1 = 644009 bus2 = 644002 
~ length = 32.557 units = m 
~ linecode = CAB102_3_3

New line.949635 phases = 3 bus1 = 644016 bus2 = 644009 
~ length = 34.712 units = m 
~ linecode = CAB102_3_3

New line.949649 phases = 3 bus1 = 644023 bus2 = 644016 
~ length = 34.524 units = m 
~ linecode = CAB102_3_3

New line.949726 phases = 3 bus1 = 644086 bus2 = 644079 
~ length = 26.305 units = m 
~ linecode = CAB102_3_1

New line.949754 phases = 3 bus1 = 644093 bus2 = 644114 
~ length = 28.861 units = m 
~ linecode = CAB102_3_1

New line.949810 phases = 3 bus1 = 644114 bus2 = 644086 
~ length = 7.616 units = m 
~ linecode = CAB102_3_1

New line.949817 phases = 3 bus1 = 644114 bus2 = 644121 
~ length = 35.902 units = m 
~ linecode = CAB102_3_1

New line.949831 phases = 3 bus1 = 644121 bus2 = 644128 
~ length = 30.805 units = m 
~ linecode = CAB102_3_1

New line.949845 phases = 3 bus1 = 644128 bus2 = 644590 
~ length = 35.692 units = m 
~ linecode = CAB102_3_1

New line.949894 phases = 3 bus1 = 644156 bus2 = 644149 
~ length = 60.727 units = m 
~ linecode = CAB103_3_3

New line.949908 phases = 3 bus1 = 644163 bus2 = 644156 
~ length = 63.243 units = m 
~ linecode = CAB103_3_3

New line.949922 phases = 3 bus1 = 644170 bus2 = 644177 
~ length = 42.519 units = m 
~ linecode = CAB102_3_3

New line.949943 phases = 3 bus1 = 644177 bus2 = 643715 
~ length = 68.247 units = m 
~ linecode = CAB102_3_3

New line.949950 phases = 3 bus1 = 644177 bus2 = 644184 
~ length = 31.256 units = m 
~ linecode = CAB102_3_3

New line.949957 phases = 3 bus1 = 644184 bus2 = 644191 
~ length = 29.999 units = m 
~ linecode = CAB102_3_3

New line.949971 phases = 3 bus1 = 644191 bus2 = 644198 
~ length = 35.127 units = m 
~ linecode = CAB103_3_3

New line.949978 phases = 3 bus1 = 644198 bus2 = 644205 
~ length = 33.105 units = m 
~ linecode = CAB103_3_3

New line.950090 phases = 3 bus1 = 644268 bus2 = 644261 
~ length = 36.999 units = m 
~ linecode = CAB102_3_1

New line.950118 phases = 3 bus1 = 644275 bus2 = 644268 
~ length = 38.052 units = m 
~ linecode = CAB102_3_1

New line.950132 phases = 3 bus1 = 644282 bus2 = 644275 
~ length = 36.055 units = m 
~ linecode = CAB102_3_1

New line.950146 phases = 3 bus1 = 644289 bus2 = 644282 
~ length = 34.014 units = m 
~ linecode = CAB102_3_1

New line.950160 phases = 3 bus1 = 644303 bus2 = 643827 
~ length = 37.335 units = m 
~ linecode = CAB104_3_3

New line.950181 phases = 3 bus1 = 644310 bus2 = 644303 
~ length = 18.111 units = m 
~ linecode = CAB104_3_3

New line.950237 phases = 3 bus1 = 644338 bus2 = 644310 
~ length = 20.248 units = m 
~ linecode = CAB104_3_3

New line.950244 phases = 3 bus1 = 644338 bus2 = 644723 
~ length = 38.287 units = m 
~ linecode = CAB103_3_3

New line.950279 phases = 3 bus1 = 644352 bus2 = 644338 
~ length = 11.18 units = m 
~ linecode = CAB104_3_3

New line.950300 phases = 3 bus1 = 644366 bus2 = 644352 
~ length = 21.931 units = m 
~ linecode = CAB104_3_3

New line.950314 phases = 3 bus1 = 644373 bus2 = 644366 
~ length = 33.615 units = m 
~ linecode = CAB104_3_3

New line.950321 phases = 3 bus1 = 644373 bus2 = 644485 
~ length = 18.385 units = m 
~ linecode = CAB102_3_3

New line.950335 phases = 3 bus1 = 644380 bus2 = 644373 
~ length = 36.714 units = m 
~ linecode = CAB107_3_3

New line.950349 phases = 3 bus1 = 644387 bus2 = 644380 
~ length = 38.078 units = m 
~ linecode = CAB107_3_3

New line.950370 phases = 3 bus1 = 644394 bus2 = 644387 
~ length = 25.019 units = m 
~ linecode = CAB107_3_3

New line.950391 phases = 3 bus1 = 644401 bus2 = 644394 
~ length = 17 units = m 
~ linecode = CAB107_3_3

New line.950398 phases = 3 bus1 = 644401 bus2 = 645402 
~ length = 32.756 units = m 
~ linecode = CAB107_3_3

New line.950419 phases = 3 bus1 = 644408 bus2 = 3537144 
~ length = 27.513 units = m 
~ linecode = CABA08_3_3

New line.950433 phases = 3 bus1 = 644415 bus2 = 644408 
~ length = 29.41 units = m 
~ linecode = CABA08_3_3

New line.950552 phases = 3 bus1 = 644485 bus2 = 3536857 
~ length = 6.325 units = m 
~ linecode = CAB102_3_3

New line.950671 phases = 3 bus1 = 644590 bus2 = 644604 
~ length = 34.712 units = m 
~ linecode = CAB102_3_1

New line.950685 phases = 3 bus1 = 644604 bus2 = 644618 
~ length = 34.712 units = m 
~ linecode = CAB102_3_1

New line.950706 phases = 3 bus1 = 644618 bus2 = 644646 
~ length = 31.4 units = m 
~ linecode = CAB102_3_1

New line.950741 phases = 3 bus1 = 644646 bus2 = 644653 
~ length = 32.572 units = m 
~ linecode = CAB102_3_1

New line.950762 phases = 3 bus1 = 644653 bus2 = 644667 
~ length = 31.048 units = m 
~ linecode = CAB102_3_1

New line.950895 phases = 3 bus1 = 644716 bus2 = 643932 
~ length = 39.811 units = m 
~ linecode = CAB102_3_3

New line.950930 phases = 3 bus1 = 644723 bus2 = 644737 
~ length = 44.821 units = m 
~ linecode = CAB103_3_3

New line.950937 phases = 3 bus1 = 644730 bus2 = 644023 
~ length = 33.955 units = m 
~ linecode = CAB102_3_3

New line.950944 phases = 3 bus1 = 644737 bus2 = 644716 
~ length = 40.791 units = m 
~ linecode = CAB102_3_3

New line.950951 phases = 3 bus1 = 644737 bus2 = 644751 
~ length = 33.97 units = m 
~ linecode = CAB103_3_3

New line.950958 phases = 3 bus1 = 644744 bus2 = 644730 
~ length = 35.902 units = m 
~ linecode = CAB102_3_3

New line.950965 phases = 3 bus1 = 644751 bus2 = 644758 
~ length = 34.712 units = m 
~ linecode = CAB103_3_3

New line.950972 phases = 3 bus1 = 644758 bus2 = 644744 
~ length = 32.893 units = m 
~ linecode = CAB102_3_3

New line.950979 phases = 3 bus1 = 644758 bus2 = 644765 
~ length = 37.335 units = m 
~ linecode = CAB103_3_3

New line.950993 phases = 3 bus1 = 644765 bus2 = 644772 
~ length = 38.274 units = m 
~ linecode = CAB103_3_3

New line.951007 phases = 3 bus1 = 644772 bus2 = 644779 
~ length = 25.999 units = m 
~ linecode = CAB103_3_3

New line.951021 phases = 3 bus1 = 644779 bus2 = 644786 
~ length = 34.234 units = m 
~ linecode = CAB103_3_3

New line.951028 phases = 3 bus1 = 644786 bus2 = 644793 
~ length = 34.234 units = m 
~ linecode = CAB103_3_3

New line.951056 phases = 3 bus1 = 644807 bus2 = 644289 
~ length = 29.017 units = m 
~ linecode = CAB102_3_1

New line.951091 phases = 3 bus1 = 644821 bus2 = 644807 
~ length = 40.049 units = m 
~ linecode = CAB102_3_1

New line.951119 phases = 3 bus1 = 644863 bus2 = 644821 
~ length = 36.054 units = m 
~ linecode = CAB102_3_1

New line.951133 phases = 3 bus1 = 644870 bus2 = 644863 
~ length = 25.999 units = m 
~ linecode = CAB102_3_1

New line.952029 phases = 3 bus1 = 645339 bus2 = 645395 
~ length = 49.657 units = m 
~ linecode = CAB103_3_1

New line.952043 phases = 3 bus1 = 645346 bus2 = 645339 
~ length = 24.207 units = m 
~ linecode = CAB103_3_1

New line.952057 phases = 3 bus1 = 645353 bus2 = 645346 
~ length = 38.078 units = m 
~ linecode = CAB103_3_1

New line.952064 phases = 3 bus1 = 645360 bus2 = 645353 
~ length = 34.131 units = m 
~ linecode = CAB103_3_1

New line.952078 phases = 3 bus1 = 645367 bus2 = 645360 
~ length = 36.399 units = m 
~ linecode = CAB103_3_1

New line.952092 phases = 3 bus1 = 645374 bus2 = 806850 
~ length = 55.577 units = m 
~ linecode = CAB103_3_1

New line.952113 phases = 3 bus1 = 645381 bus2 = 645374 
~ length = 37.482 units = m 
~ linecode = CAB103_3_1

New line.952127 phases = 3 bus1 = 645388 bus2 = 645367 
~ length = 36.399 units = m 
~ linecode = CAB103_3_1

New line.952134 phases = 3 bus1 = 645388 bus2 = 645381 
~ length = 30.082 units = m 
~ linecode = CAB103_3_1

New line.952155 phases = 3 bus1 = 645395 bus2 = 793011 
~ length = 32.202 units = m 
~ linecode = CAB103_3_1

New line.952183 phases = 3 bus1 = 645402 bus2 = 645409 
~ length = 40.52 units = m 
~ linecode = CAB107_3_3

New line.952204 phases = 3 bus1 = 645409 bus2 = 645430 
~ length = 23.086 units = m 
~ linecode = CAB107_3_3

New line.952253 phases = 3 bus1 = 645430 bus2 = 645451 
~ length = 21.587 units = m 
~ linecode = CAB107_3_3

New line.952288 phases = 3 bus1 = 645451 bus2 = 645472 
~ length = 24.02 units = m 
~ linecode = CAB107_3_3

New line.952316 phases = 3 bus1 = 645465 bus2 = 645563 
~ length = 35.354 units = m 
~ linecode = CABA08_3_3

New line.952330 phases = 3 bus1 = 645472 bus2 = 645493 
~ length = 21.54 units = m 
~ linecode = CABA08_3_3

New line.952337 phases = 3 bus1 = 645472 bus2 = 4901227 
~ length = 37.575 units = m 
~ linecode = CABA08_3_3

New line.952351 phases = 3 bus1 = 645479 bus2 = 645465 
~ length = 13.928 units = m 
~ linecode = CABA08_3_3

New line.952358 phases = 3 bus1 = 645486 bus2 = 645479 
~ length = 13.892 units = m 
~ linecode = CABA08_3_3

New line.952372 phases = 3 bus1 = 645493 bus2 = 645486 
~ length = 23.769 units = m 
~ linecode = CABA08_3_3

New line.952379 phases = 3 bus1 = 645493 bus2 = 645507 
~ length = 22.022 units = m 
~ linecode = CABA08_3_3

New line.952442 phases = 3 bus1 = 645542 bus2 = 645556 
~ length = 12.649 units = m 
~ linecode = CABA08_3_3

New line.952449 phases = 3 bus1 = 645549 bus2 = 645542 
~ length = 10 units = m 
~ linecode = CABA08_3_3

New line.952456 phases = 3 bus1 = 645556 bus2 = 646319 
~ length = 34.985 units = m 
~ linecode = CABA08_3_3

New line.952470 phases = 3 bus1 = 645563 bus2 = 645549 
~ length = 25.079 units = m 
~ linecode = CABA08_3_3

New line.952484 phases = 3 bus1 = 645570 bus2 = 644870 
~ length = 31.384 units = m 
~ linecode = CAB102_3_1

New line.952498 phases = 3 bus1 = 645577 bus2 = 645584 
~ length = 53.234 units = m 
~ linecode = CAB102_3_1

New line.952505 phases = 3 bus1 = 645584 bus2 = 645570 
~ length = 27.658 units = m 
~ linecode = CAB102_3_1

New line.952519 phases = 3 bus1 = 645591 bus2 = 645577 
~ length = 53.449 units = m 
~ linecode = CAB102_3_1

New line.952526 phases = 3 bus1 = 645598 bus2 = 645591 
~ length = 34.175 units = m 
~ linecode = CAB102_3_1

New line.952547 phases = 3 bus1 = 645605 bus2 = 645598 
~ length = 42.201 units = m 
~ linecode = CAB102_3_1

New line.952568 phases = 3 bus1 = 645619 bus2 = 645605 
~ length = 36.714 units = m 
~ linecode = CAB102_3_1

New line.952582 phases = 3 bus1 = 645626 bus2 = 645640 
~ length = 16.643 units = m 
~ linecode = CAB102_3_1

New line.952596 phases = 3 bus1 = 645633 bus2 = 645619 
~ length = 21.023 units = m 
~ linecode = CAB102_3_1

New line.952603 phases = 3 bus1 = 645640 bus2 = 645633 
~ length = 19.105 units = m 
~ linecode = CAB102_3_1

New line.952792 phases = 3 bus1 = 645738 bus2 = 645731 
~ length = 36.877 units = m 
~ linecode = CAB103_3_3

New line.952813 phases = 3 bus1 = 645745 bus2 = 645738 
~ length = 39.622 units = m 
~ linecode = CAB103_3_3

New line.952834 phases = 3 bus1 = 645752 bus2 = 645745 
~ length = 32.802 units = m 
~ linecode = CAB103_3_3

New line.952841 phases = 3 bus1 = 645752 bus2 = 645962 
~ length = 31.064 units = m 
~ linecode = CABA06_3_3

New line.953009 phases = 3 bus1 = 645829 bus2 = 645822 
~ length = 33.97 units = m 
~ linecode = CABA06_3_3

New line.953023 phases = 3 bus1 = 645836 bus2 = 645843 
~ length = 32.526 units = m 
~ linecode = CABA06_3_3

New line.953030 phases = 3 bus1 = 645843 bus2 = 645829 
~ length = 36.796 units = m 
~ linecode = CABA06_3_3

New line.953037 phases = 3 bus1 = 645843 bus2 = 645857 
~ length = 29.731 units = m 
~ linecode = CABA06_3_3

New line.953044 phases = 3 bus1 = 645850 bus2 = 645836 
~ length = 31.827 units = m 
~ linecode = CABA06_3_3

New line.953058 phases = 3 bus1 = 645857 bus2 = 645871 
~ length = 31.89 units = m 
~ linecode = CABA06_3_3

New line.953072 phases = 3 bus1 = 645864 bus2 = 645850 
~ length = 41.724 units = m 
~ linecode = CABA06_3_3

New line.953086 phases = 3 bus1 = 645871 bus2 = 645920 
~ length = 31.112 units = m 
~ linecode = CABA06_3_3
