New load.14426 phases = 1 model = 8 ZIPV = [0.5 0 0.5 0 0 1 0.85] daily = Rural bus = BT_642574.1.2.0 kv = 0.22 pf = 0.92 kw = 0.304398  conn = delta

New load.25510 phases = 1 model = 8 ZIPV = [0.5 0 0.5 0 0 1 0.85] daily = Rural bus = BT_642455.1.2.4 kv = 0.22 pf = 0.92 kw = 0.134491  conn = delta

New load.54748 phases = 3 model = 8 ZIPV = [0.5 0 0.5 0 0 1 0.85] daily = Comercial bus = BT_647474.1.2.3.4 kv = 0.22 pf = 0.92 kw = 0.699537  conn = delta

New load.64435 phases = 1 model = 8 ZIPV = [0.5 0 0.5 0 0 1 0.85] daily = Comercial bus = BT_643862.2.3.4 kv = 0.22 pf = 0.92 kw = 0.444792  conn = delta

New load.64436 phases = 1 model = 8 ZIPV = [0.5 0 0.5 0 0 1 0.85] daily = Comercial bus = BT_644758.3.1.4 kv = 0.22 pf = 0.92 kw = 0.629514  conn = delta

New load.64437 phases = 1 model = 8 ZIPV = [0.5 0 0.5 0 0 1 0.85] daily = Comercial bus = BT_643330.1.2.4 kv = 0.22 pf = 0.92 kw = 0.208912  conn = delta

New load.88385 phases = 1 model = 8 ZIPV = [0.5 0 0.5 0 0 1 0.85] daily = Comercial bus = BT_645570.1.4 kv = 0.12 pf = 0.92 kw = 0  conn = wye

New load.88386 phases = 1 model = 8 ZIPV = [0.5 0 0.5 0 0 1 0.85] daily = Comercial bus = BT_648258.1.2.4 kv = 0.22 pf = 0.92 kw = 0  conn = delta

New load.88388 phases = 3 model = 8 ZIPV = [0.5 0 0.5 0 0 1 0.85] daily = Comercial bus = BT_646137.1.2.3.0 kv = 0.22 pf = 0.92 kw = 0  conn = delta

New load.88389 phases = 3 model = 8 ZIPV = [0.5 0 0.5 0 0 1 0.85] daily = Comercial bus = BT_646144.1.2.3.4 kv = 0.22 pf = 0.92 kw = 0.356366  conn = delta

New load.88390 phases = 3 model = 8 ZIPV = [0.5 0 0.5 0 0 1 0.85] daily = Comercial bus = BT_646144.1.2.3.4 kv = 0.22 pf = 0.92 kw = 0.140278  conn = delta

New load.88391 phases = 3 model = 8 ZIPV = [0.5 0 0.5 0 0 1 0.85] daily = Comercial bus = BT_646221.1.2.3.4 kv = 0.22 pf = 0.92 kw = 0.470486  conn = delta

New load.88394 phases = 1 model = 8 ZIPV = [0.5 0 0.5 0 0 1 0.85] daily = Comercial bus = BT_652570.1.2.4 kv = 0.22 pf = 0.92 kw = 0.000115741  conn = delta

New load.88395 phases = 1 model = 8 ZIPV = [0.5 0 0.5 0 0 1 0.85] daily = Comercial bus = BT_655692.2.0 kv = 0.12 pf = 0.92 kw = 0.0751157  conn = wye

New load.88396 phases = 1 model = 8 ZIPV = [0.5 0 0.5 0 0 1 0.85] daily = Comercial bus = BT_656350.2.4 kv = 0.12 pf = 0.92 kw = 0  conn = wye

New load.88397 phases = 1 model = 8 ZIPV = [0.5 0 0.5 0 0 1 0.85] daily = Comercial bus = BT_656350.3.4 kv = 0.127 pf = 0.92 kw = 0.0701389  conn = wye

New load.88398 phases = 1 model = 8 ZIPV = [0.5 0 0.5 0 0 1 0.85] daily = Comercial bus = BT_657736.1.2.4 kv = 0.22 pf = 0.92 kw = 0  conn = delta

New load.88399 phases = 3 model = 8 ZIPV = [0.5 0 0.5 0 0 1 0.85] daily = Comercial bus = BT_654684.1.2.3.4 kv = 0.22 pf = 0.92 kw = 0  conn = delta

New load.160177 phases = 3 model = 8 ZIPV = [0.5 0 0.5 0 0 1 0.85] daily = Comercial bus = BT_646326.1.2.3.4 kv = 0.22 pf = 0.92 kw = 0.134491  conn = delta

New load.160178 phases = 3 model = 8 ZIPV = [0.5 0 0.5 0 0 1 0.85] daily = Comercial bus = BT_645409.1.2.3.4 kv = 0.22 pf = 0.92 kw = 0.242361  conn = delta

New load.160179 phases = 3 model = 8 ZIPV = [0.5 0 0.5 0 0 1 0.85] daily = Comercial bus = BT_643855.1.2.3.4 kv = 0.22 pf = 0.92 kw = 0.442361  conn = delta

New load.160180 phases = 3 model = 8 ZIPV = [0.5 0 0.5 0 0 1 0.85] daily = Comercial bus = BT_643883.1.2.3.4 kv = 0.22 pf = 0.92 kw = 0.000578704  conn = delta

New load.160181 phases = 1 model = 8 ZIPV = [0.5 0 0.5 0 0 1 0.85] daily = Comercial bus = BT_643862.1.4 kv = 0.127 pf = 0.92 kw = 0  conn = wye

New load.160182 phases = 3 model = 8 ZIPV = [0.5 0 0.5 0 0 1 0.85] daily = Comercial bus = BT_644373.1.2.3.4 kv = 0.22 pf = 0.92 kw = 0  conn = delta

New load.160183 phases = 3 model = 8 ZIPV = [0.5 0 0.5 0 0 1 0.85] daily = Comercial bus = BT_644373.1.2.3.4 kv = 0.22 pf = 0.92 kw = 0  conn = delta

New load.160184 phases = 1 model = 8 ZIPV = [0.5 0 0.5 0 0 1 0.85] daily = Comercial bus = BT_645402.1.2.4 kv = 0.22 pf = 0.92 kw = 0.115394  conn = delta

New load.160185 phases = 1 model = 8 ZIPV = [0.5 0 0.5 0 0 1 0.85] daily = Comercial bus = BT_645402.1.2.4 kv = 0.22 pf = 0.92 kw = 0.37963  conn = delta

New load.160186 phases = 1 model = 8 ZIPV = [0.5 0 0.5 0 0 1 0.85] daily = Comercial bus = BT_645437.1.4 kv = 0.127 pf = 0.92 kw = 0.124306  conn = wye

New load.160187 phases = 1 model = 8 ZIPV = [0.5 0 0.5 0 0 1 0.85] daily = Comercial bus = BT_644632.1.2.4 kv = 0.22 pf = 0.92 kw = 0.0549769  conn = delta

New load.160188 phases = 1 model = 8 ZIPV = [0.5 0 0.5 0 0 1 0.85] daily = Comercial bus = BT_643995.1.2.4 kv = 0.22 pf = 0.92 kw = 0.285301  conn = delta

New load.160189 phases = 3 model = 8 ZIPV = [0.5 0 0.5 0 0 1 0.85] daily = Comercial bus = BT_643974.1.2.3.4 kv = 0.22 pf = 0.92 kw = 0.129051  conn = delta

New load.160190 phases = 3 model = 8 ZIPV = [0.5 0 0.5 0 0 1 0.85] daily = Comercial bus = BT_643960.1.2.3.4 kv = 0.22 pf = 0.92 kw = 0.00601852  conn = delta

New load.160191 phases = 1 model = 8 ZIPV = [0.5 0 0.5 0 0 1 0.85] daily = Comercial bus = BT_644653.1.2.4 kv = 0.22 pf = 0.92 kw = 0.00891204  conn = delta

New load.160194 phases = 1 model = 8 ZIPV = [0.5 0 0.5 0 0 1 0.85] daily = Comercial bus = BT_643407.1.2.0 kv = 0.22 pf = 0.92 kw = 0  conn = delta

New load.162802 phases = 3 model = 8 ZIPV = [0.5 0 0.5 0 0 1 0.85] daily = Industrial bus = BT_648748.1.2.3.4 kv = 0.22 pf = 0.92 kw = 0.226852  conn = delta

New load.163295 phases = 3 model = 8 ZIPV = [0.5 0 0.5 0 0 1 0.85] daily = Industrial bus = BT_645409.1.2.3.4 kv = 0.22 pf = 0.92 kw = 0.616319  conn = delta

New load.163296 phases = 3 model = 8 ZIPV = [0.5 0 0.5 0 0 1 0.85] daily = Industrial bus = BT_643834.1.2.3.4 kv = 0.22 pf = 0.92 kw = 1.09919  conn = delta

New load.175817 phases = 1 model = 8 ZIPV = [0.5 0 0.5 0 0 1 0.85] daily = Residencial bus = BT_796000.1.2.0 kv = 0.22 pf = 0.92 kw = 0.161458  conn = delta

New load.175818 phases = 1 model = 8 ZIPV = [0.5 0 0.5 0 0 1 0.85] daily = Residencial bus = BT_647355.3.1.4 kv = 0.22 pf = 0.92 kw = 0.35081  conn = delta

New load.175819 phases = 3 model = 8 ZIPV = [0.5 0 0.5 0 0 1 0.85] daily = Residencial bus = BT_646137.1.2.3.0 kv = 0.22 pf = 0.92 kw = 0.431019  conn = delta

New load.175820 phases = 1 model = 8 ZIPV = [0.5 0 0.5 0 0 1 0.85] daily = Residencial bus = BT_654670.1.2.0 kv = 0.22 pf = 0.92 kw = 0.692477  conn = delta

New load.175821 phases = 1 model = 8 ZIPV = [0.5 0 0.5 0 0 1 0.85] daily = Residencial bus = BT_642224.1.2.4 kv = 0.22 pf = 0.92 kw = 0.804745  conn = delta

New load.192116 phases = 3 model = 8 ZIPV = [0.5 0 0.5 0 0 1 0.85] daily = Residencial bus = BT_643862.1.2.3.4 kv = 0.22 pf = 0.92 kw = 0.825926  conn = delta

New load.192117 phases = 1 model = 8 ZIPV = [0.5 0 0.5 0 0 1 0.85] daily = Residencial bus = BT_644786.1.2.4 kv = 0.22 pf = 0.92 kw = 0.217708  conn = delta

New load.199484 phases = 1 model = 8 ZIPV = [0.5 0 0.5 0 0 1 0.85] daily = Residencial bus = BT_644282.2.4 kv = 0.12 pf = 0.92 kw = 0.594329  conn = wye

New load.199485 phases = 1 model = 8 ZIPV = [0.5 0 0.5 0 0 1 0.85] daily = Residencial bus = BT_646718.1.4 kv = 0.127 pf = 0.92 kw = 0.442477  conn = wye

New load.199486 phases = 1 model = 8 ZIPV = [0.5 0 0.5 0 0 1 0.85] daily = Residencial bus = BT_647341.1.2.4 kv = 0.22 pf = 0.92 kw = 0.392708  conn = delta

New load.199487 phases = 1 model = 8 ZIPV = [0.5 0 0.5 0 0 1 0.85] daily = Residencial bus = BT_652542.1.2.0 kv = 0.22 pf = 0.92 kw = 0.302546  conn = delta

New load.199488 phases = 1 model = 8 ZIPV = [0.5 0 0.5 0 0 1 0.85] daily = Residencial bus = BT_652556.1.2.4 kv = 0.22 pf = 0.92 kw = 0.398264  conn = delta

New load.199489 phases = 1 model = 8 ZIPV = [0.5 0 0.5 0 0 1 0.85] daily = Residencial bus = BT_656364.1.2.0 kv = 0.22 pf = 0.92 kw = 0.441435  conn = delta

New load.199490 phases = 1 model = 8 ZIPV = [0.5 0 0.5 0 0 1 0.85] daily = Residencial bus = BT_642161.1.2.4 kv = 0.22 pf = 0.92 kw = 0.452662  conn = delta

New load.199491 phases = 1 model = 8 ZIPV = [0.5 0 0.5 0 0 1 0.85] daily = Residencial bus = BT_642280.1.2.4 kv = 0.22 pf = 0.92 kw = 0.432292  conn = delta

New load.199492 phases = 1 model = 8 ZIPV = [0.5 0 0.5 0 0 1 0.85] daily = Residencial bus = BT_642245.1.4 kv = 0.12 pf = 0.92 kw = 0.402431  conn = wye

New load.231490 phases = 3 model = 8 ZIPV = [0.5 0 0.5 0 0 1 0.85] daily = Residencial bus = BT_646326.1.2.3.4 kv = 0.22 pf = 0.92 kw = 0.350116  conn = delta

New load.231493 phases = 1 model = 8 ZIPV = [0.5 0 0.5 0 0 1 0.85] daily = Residencial bus = BT_644429.1.2.4 kv = 0.22 pf = 0.92 kw = 0.342014  conn = delta

New load.231494 phases = 1 model = 8 ZIPV = [0.5 0 0.5 0 0 1 0.85] daily = Residencial bus = BT_644723.1.4 kv = 0.127 pf = 0.92 kw = 0.42037  conn = wye

New load.231495 phases = 3 model = 8 ZIPV = [0.5 0 0.5 0 0 1 0.85] daily = Residencial bus = BT_643904.1.2.3.4 kv = 0.22 pf = 0.92 kw = 0.484259  conn = delta

New load.231496 phases = 1 model = 8 ZIPV = [0.5 0 0.5 0 0 1 0.85] daily = Residencial bus = BT_644296.1.2.4 kv = 0.22 pf = 0.92 kw = 0.405903  conn = delta

New load.231497 phases = 1 model = 8 ZIPV = [0.5 0 0.5 0 0 1 0.85] daily = Residencial bus = BT_644009.2.3.4 kv = 0.22 pf = 0.92 kw = 0.296528  conn = delta

New load.231498 phases = 1 model = 8 ZIPV = [0.5 0 0.5 0 0 1 0.85] daily = Residencial bus = BT_644786.2.4 kv = 0.127 pf = 0.92 kw = 0.340162  conn = wye

New load.231503 phases = 1 model = 8 ZIPV = [0.5 0 0.5 0 0 1 0.85] daily = Residencial bus = BT_642931.2.4 kv = 0.12 pf = 0.92 kw = 0.314468  conn = wye

New load.231504 phases = 1 model = 8 ZIPV = [0.5 0 0.5 0 0 1 0.85] daily = Residencial bus = BT_642693.1.2.4 kv = 0.22 pf = 0.92 kw = 0.248958  conn = delta

New load.255222 phases = 1 model = 8 ZIPV = [0.5 0 0.5 0 0 1 0.85] daily = Residencial bus = BT_645577.1.2.4 kv = 0.22 pf = 0.92 kw = 0.268519  conn = delta

New load.255223 phases = 1 model = 8 ZIPV = [0.5 0 0.5 0 0 1 0.85] daily = Residencial bus = BT_644800.2.4 kv = 0.12 pf = 0.92 kw = 0.345023  conn = wye

New load.255224 phases = 1 model = 8 ZIPV = [0.5 0 0.5 0 0 1 0.85] daily = Residencial bus = BT_644254.2.4 kv = 0.12 pf = 0.92 kw = 0.230093  conn = wye

New load.255225 phases = 1 model = 8 ZIPV = [0.5 0 0.5 0 0 1 0.85] daily = Residencial bus = BT_646704.1.2.0 kv = 0.22 pf = 0.92 kw = 0.226157  conn = delta

New load.255226 phases = 1 model = 8 ZIPV = [0.5 0 0.5 0 0 1 0.85] daily = Residencial bus = BT_646711.1.4 kv = 0.127 pf = 0.92 kw = 0.117824  conn = wye

New load.255227 phases = 1 model = 8 ZIPV = [0.5 0 0.5 0 0 1 0.85] daily = Residencial bus = BT_646424.2.4 kv = 0.127 pf = 0.92 kw = 0.262153  conn = wye

New load.255228 phases = 1 model = 8 ZIPV = [0.5 0 0.5 0 0 1 0.85] daily = Residencial bus = BT_645878.1.4 kv = 0.127 pf = 0.92 kw = 0.32419  conn = wye

New load.255229 phases = 1 model = 8 ZIPV = [0.5 0 0.5 0 0 1 0.85] daily = Residencial bus = BT_645892.2.4 kv = 0.127 pf = 0.92 kw = 0.262616  conn = wye

New load.255230 phases = 1 model = 8 ZIPV = [0.5 0 0.5 0 0 1 0.85] daily = Residencial bus = BT_647348.3.4 kv = 0.127 pf = 0.92 kw = 0.323264  conn = wye

New load.255231 phases = 1 model = 8 ZIPV = [0.5 0 0.5 0 0 1 0.85] daily = Residencial bus = BT_648258.1.2.4 kv = 0.22 pf = 0.92 kw = 0.171875  conn = delta

New load.255232 phases = 1 model = 8 ZIPV = [0.5 0 0.5 0 0 1 0.85] daily = Residencial bus = BT_645381.1.2.4 kv = 0.22 pf = 0.92 kw = 0.288426  conn = delta

New load.255233 phases = 1 model = 8 ZIPV = [0.5 0 0.5 0 0 1 0.85] daily = Residencial bus = BT_646081.2.4 kv = 0.127 pf = 0.92 kw = 0.317593  conn = wye

New load.255234 phases = 1 model = 8 ZIPV = [0.5 0 0.5 0 0 1 0.85] daily = Residencial bus = BT_646144.3.4 kv = 0.127 pf = 0.92 kw = 0.26794  conn = wye

New load.255235 phases = 1 model = 8 ZIPV = [0.5 0 0.5 0 0 1 0.85] daily = Residencial bus = BT_646088.2.4 kv = 0.127 pf = 0.92 kw = 0.270833  conn = wye

New load.255236 phases = 1 model = 8 ZIPV = [0.5 0 0.5 0 0 1 0.85] daily = Residencial bus = BT_650911.1.2.4 kv = 0.22 pf = 0.92 kw = 0.279167  conn = delta

New load.255237 phases = 1 model = 8 ZIPV = [0.5 0 0.5 0 0 1 0.85] daily = Residencial bus = BT_650953.1.4 kv = 0.127 pf = 0.92 kw = 0.331944  conn = wye

New load.255238 phases = 1 model = 8 ZIPV = [0.5 0 0.5 0 0 1 0.85] daily = Residencial bus = BT_652584.1.2.4 kv = 0.22 pf = 0.92 kw = 0.241782  conn = delta

New load.255239 phases = 1 model = 8 ZIPV = [0.5 0 0.5 0 0 1 0.85] daily = Residencial bus = BT_655671.1.2.4 kv = 0.22 pf = 0.92 kw = 0.335185  conn = delta

New load.255240 phases = 1 model = 8 ZIPV = [0.5 0 0.5 0 0 1 0.85] daily = Residencial bus = BT_655678.2.4 kv = 0.12 pf = 0.92 kw = 0.280208  conn = wye

New load.255241 phases = 1 model = 8 ZIPV = [0.5 0 0.5 0 0 1 0.85] daily = Residencial bus = BT_655678.2.4 kv = 0.12 pf = 0.92 kw = 0.182407  conn = wye

New load.255242 phases = 1 model = 8 ZIPV = [0.5 0 0.5 0 0 1 0.85] daily = Residencial bus = BT_655706.1.2.4 kv = 0.22 pf = 0.92 kw = 0.162269  conn = delta

New load.255243 phases = 1 model = 8 ZIPV = [0.5 0 0.5 0 0 1 0.85] daily = Residencial bus = BT_655713.2.4 kv = 0.12 pf = 0.92 kw = 0.227431  conn = wye

New load.255244 phases = 1 model = 8 ZIPV = [0.5 0 0.5 0 0 1 0.85] daily = Residencial bus = BT_655699.1.4 kv = 0.12 pf = 0.92 kw = 0.321065  conn = wye

New load.255245 phases = 1 model = 8 ZIPV = [0.5 0 0.5 0 0 1 0.85] daily = Residencial bus = BT_655685.2.4 kv = 0.12 pf = 0.92 kw = 0.311111  conn = wye

New load.255246 phases = 1 model = 8 ZIPV = [0.5 0 0.5 0 0 1 0.85] daily = Residencial bus = BT_659220.1.2.4 kv = 0.22 pf = 0.92 kw = 0.331944  conn = delta

New load.255247 phases = 1 model = 8 ZIPV = [0.5 0 0.5 0 0 1 0.85] daily = Residencial bus = BT_657771.1.4 kv = 0.127 pf = 0.92 kw = 0.293287  conn = wye

New load.255248 phases = 1 model = 8 ZIPV = [0.5 0 0.5 0 0 1 0.85] daily = Residencial bus = BT_657785.2.4 kv = 0.127 pf = 0.92 kw = 0.366782  conn = wye

New load.255249 phases = 1 model = 8 ZIPV = [0.5 0 0.5 0 0 1 0.85] daily = Residencial bus = BT_657785.1.2.4 kv = 0.22 pf = 0.92 kw = 0.134838  conn = delta

New load.255250 phases = 1 model = 8 ZIPV = [0.5 0 0.5 0 0 1 0.85] daily = Residencial bus = BT_657827.1.2.4 kv = 0.22 pf = 0.92 kw = 0.241898  conn = delta

New load.255251 phases = 1 model = 8 ZIPV = [0.5 0 0.5 0 0 1 0.85] daily = Residencial bus = BT_657834.3.4 kv = 0.127 pf = 0.92 kw = 0.156366  conn = wye

New load.255252 phases = 1 model = 8 ZIPV = [0.5 0 0.5 0 0 1 0.85] daily = Residencial bus = BT_642168.1.2.4 kv = 0.22 pf = 0.92 kw = 0.311111  conn = delta

New load.255253 phases = 1 model = 8 ZIPV = [0.5 0 0.5 0 0 1 0.85] daily = Residencial bus = BT_642315.1.4 kv = 0.12 pf = 0.92 kw = 0.0696759  conn = wye

New load.255254 phases = 1 model = 8 ZIPV = [0.5 0 0.5 0 0 1 0.85] daily = Residencial bus = BT_642343.2.4 kv = 0.12 pf = 0.92 kw = 0.301042  conn = wye

New load.255255 phases = 1 model = 8 ZIPV = [0.5 0 0.5 0 0 1 0.85] daily = Residencial bus = BT_642336.1.2.0 kv = 0.22 pf = 0.92 kw = 0.396181  conn = delta

New load.255256 phases = 1 model = 8 ZIPV = [0.5 0 0.5 0 0 1 0.85] daily = Residencial bus = BT_642371.2.4 kv = 0.12 pf = 0.92 kw = 0.326273  conn = wye

New load.362713 phases = 3 model = 8 ZIPV = [0.5 0 0.5 0 0 1 0.85] daily = Residencial bus = BT_646326.1.2.3.4 kv = 0.22 pf = 0.92 kw = 0.242014  conn = delta

New load.362714 phases = 3 model = 8 ZIPV = [0.5 0 0.5 0 0 1 0.85] daily = Residencial bus = BT_646326.1.2.3.4 kv = 0.22 pf = 0.92 kw = 0.305671  conn = delta

New load.362721 phases = 1 model = 8 ZIPV = [0.5 0 0.5 0 0 1 0.85] daily = Residencial bus = BT_644317.1.2.4 kv = 0.22 pf = 0.92 kw = 0.278009  conn = delta

New load.362722 phases = 3 model = 8 ZIPV = [0.5 0 0.5 0 0 1 0.85] daily = Residencial bus = BT_644324.1.2.3.4 kv = 0.22 pf = 0.92 kw = 0.264931  conn = delta

New load.362723 phases = 1 model = 8 ZIPV = [0.5 0 0.5 0 0 1 0.85] daily = Residencial bus = BT_643841.1.4 kv = 0.127 pf = 0.92 kw = 0.295833  conn = wye

New load.362724 phases = 1 model = 8 ZIPV = [0.5 0 0.5 0 0 1 0.85] daily = Residencial bus = BT_643855.1.2.4 kv = 0.22 pf = 0.92 kw = 0.271528  conn = delta

New load.362725 phases = 1 model = 8 ZIPV = [0.5 0 0.5 0 0 1 0.85] daily = Residencial bus = BT_643890.3.1.4 kv = 0.22 pf = 0.92 kw = 0.209838  conn = delta

New load.362726 phases = 1 model = 8 ZIPV = [0.5 0 0.5 0 0 1 0.85] daily = Residencial bus = BT_643890.2.4 kv = 0.127 pf = 0.92 kw = 0.373611  conn = wye

New load.362727 phases = 1 model = 8 ZIPV = [0.5 0 0.5 0 0 1 0.85] daily = Residencial bus = BT_643918.2.3.4 kv = 0.22 pf = 0.92 kw = 0.0747685  conn = delta

New load.362728 phases = 1 model = 8 ZIPV = [0.5 0 0.5 0 0 1 0.85] daily = Residencial bus = BT_643932.1.2.4 kv = 0.22 pf = 0.92 kw = 0.258333  conn = delta

New load.362729 phases = 3 model = 8 ZIPV = [0.5 0 0.5 0 0 1 0.85] daily = Residencial bus = BT_644751.1.2.3.4 kv = 0.22 pf = 0.92 kw = 0.335764  conn = delta

New load.362730 phases = 1 model = 8 ZIPV = [0.5 0 0.5 0 0 1 0.85] daily = Residencial bus = BT_644737.1.4 kv = 0.127 pf = 0.92 kw = 0.235301  conn = wye

New load.362731 phases = 1 model = 8 ZIPV = [0.5 0 0.5 0 0 1 0.85] daily = Residencial bus = BT_644716.1.2.4 kv = 0.22 pf = 0.92 kw = 0.318634  conn = delta

New load.362732 phases = 3 model = 8 ZIPV = [0.5 0 0.5 0 0 1 0.85] daily = Residencial bus = BT_643932.1.2.3.4 kv = 0.22 pf = 0.92 kw = 0.372106  conn = delta

New load.362733 phases = 3 model = 8 ZIPV = [0.5 0 0.5 0 0 1 0.85] daily = Residencial bus = BT_643918.1.2.3.4 kv = 0.22 pf = 0.92 kw = 0.252662  conn = delta

New load.362734 phases = 1 model = 8 ZIPV = [0.5 0 0.5 0 0 1 0.85] daily = Residencial bus = BT_644366.3.1.0 kv = 0.22 pf = 0.92 kw = 0.256481  conn = delta

New load.362735 phases = 1 model = 8 ZIPV = [0.5 0 0.5 0 0 1 0.85] daily = Residencial bus = BT_645206.1.2.4 kv = 0.22 pf = 0.92 kw = 0.338889  conn = delta

New load.362737 phases = 1 model = 8 ZIPV = [0.5 0 0.5 0 0 1 0.85] daily = Residencial bus = BT_644765.2.3.0 kv = 0.22 pf = 0.92 kw = 0.303009  conn = delta

New load.362738 phases = 1 model = 8 ZIPV = [0.5 0 0.5 0 0 1 0.85] daily = Residencial bus = BT_644730.1.2.4 kv = 0.22 pf = 0.92 kw = 0.253125  conn = delta

New load.362739 phases = 1 model = 8 ZIPV = [0.5 0 0.5 0 0 1 0.85] daily = Residencial bus = BT_644023.1.2.4 kv = 0.22 pf = 0.92 kw = 0.264236  conn = delta

New load.362740 phases = 1 model = 8 ZIPV = [0.5 0 0.5 0 0 1 0.85] daily = Residencial bus = BT_644772.1.4 kv = 0.127 pf = 0.92 kw = 0.354861  conn = wye

New load.362741 phases = 1 model = 8 ZIPV = [0.5 0 0.5 0 0 1 0.85] daily = Residencial bus = BT_644793.2.4 kv = 0.127 pf = 0.92 kw = 0.309606  conn = wye

New load.362742 phases = 1 model = 8 ZIPV = [0.5 0 0.5 0 0 1 0.85] daily = Residencial bus = BT_644793.2.4 kv = 0.127 pf = 0.92 kw = 0.291898  conn = wye

New load.362743 phases = 3 model = 8 ZIPV = [0.5 0 0.5 0 0 1 0.85] daily = Residencial bus = BT_644786.1.2.3.4 kv = 0.22 pf = 0.92 kw = 0.234606  conn = delta

New load.362750 phases = 1 model = 8 ZIPV = [0.5 0 0.5 0 0 1 0.85] daily = Residencial bus = BT_645402.1.2.4 kv = 0.22 pf = 0.92 kw = 0.264352  conn = delta

New load.362753 phases = 1 model = 8 ZIPV = [0.5 0 0.5 0 0 1 0.85] daily = Residencial bus = BT_644590.1.2.4 kv = 0.22 pf = 0.92 kw = 0.272106  conn = delta

New load.362754 phases = 1 model = 8 ZIPV = [0.5 0 0.5 0 0 1 0.85] daily = Residencial bus = BT_644590.1.4 kv = 0.12 pf = 0.92 kw = 0.149074  conn = wye

New load.362755 phases = 1 model = 8 ZIPV = [0.5 0 0.5 0 0 1 0.85] daily = Residencial bus = BT_644114.2.4 kv = 0.12 pf = 0.92 kw = 0.325694  conn = wye

New load.362756 phases = 1 model = 8 ZIPV = [0.5 0 0.5 0 0 1 0.85] daily = Residencial bus = BT_644093.1.2.4 kv = 0.22 pf = 0.92 kw = 0.386921  conn = delta

New load.362757 phases = 1 model = 8 ZIPV = [0.5 0 0.5 0 0 1 0.85] daily = Residencial bus = BT_644093.1.2.4 kv = 0.22 pf = 0.92 kw = 0.312847  conn = delta

New load.362758 phases = 1 model = 8 ZIPV = [0.5 0 0.5 0 0 1 0.85] daily = Residencial bus = BT_643988.3.0 kv = 0.127 pf = 0.92 kw = 0.346181  conn = wye

New load.362759 phases = 1 model = 8 ZIPV = [0.5 0 0.5 0 0 1 0.85] daily = Residencial bus = BT_643988.3.0 kv = 0.127 pf = 0.92 kw = 0.252315  conn = wye

New load.362760 phases = 1 model = 8 ZIPV = [0.5 0 0.5 0 0 1 0.85] daily = Residencial bus = BT_643981.3.4 kv = 0.127 pf = 0.92 kw = 0.259144  conn = wye

New load.362761 phases = 1 model = 8 ZIPV = [0.5 0 0.5 0 0 1 0.85] daily = Residencial bus = BT_643946.1.2.4 kv = 0.22 pf = 0.92 kw = 0.258218  conn = delta

New load.362762 phases = 1 model = 8 ZIPV = [0.5 0 0.5 0 0 1 0.85] daily = Residencial bus = BT_643624.1.2.4 kv = 0.22 pf = 0.92 kw = 0.301042  conn = delta

New load.362763 phases = 1 model = 8 ZIPV = [0.5 0 0.5 0 0 1 0.85] daily = Residencial bus = BT_644086.1.2.4 kv = 0.22 pf = 0.92 kw = 0.319907  conn = delta

New load.362764 phases = 1 model = 8 ZIPV = [0.5 0 0.5 0 0 1 0.85] daily = Residencial bus = BT_644128.1.4 kv = 0.12 pf = 0.92 kw = 0.264468  conn = wye

New load.362765 phases = 1 model = 8 ZIPV = [0.5 0 0.5 0 0 1 0.85] daily = Residencial bus = BT_644604.1.2.4 kv = 0.22 pf = 0.92 kw = 0.108449  conn = delta

New load.362766 phases = 1 model = 8 ZIPV = [0.5 0 0.5 0 0 1 0.85] daily = Residencial bus = BT_644625.1.4 kv = 0.12 pf = 0.92 kw = 0.280671  conn = wye

New load.362767 phases = 1 model = 8 ZIPV = [0.5 0 0.5 0 0 1 0.85] daily = Residencial bus = BT_644597.1.2.0 kv = 0.22 pf = 0.92 kw = 0.240278  conn = delta

New load.362768 phases = 1 model = 8 ZIPV = [0.5 0 0.5 0 0 1 0.85] daily = Residencial bus = BT_644583.1.4 kv = 0.12 pf = 0.92 kw = 0.334491  conn = wye

New load.362769 phases = 1 model = 8 ZIPV = [0.5 0 0.5 0 0 1 0.85] daily = Residencial bus = BT_644625.1.2.4 kv = 0.22 pf = 0.92 kw = 0.310532  conn = delta

New load.362770 phases = 1 model = 8 ZIPV = [0.5 0 0.5 0 0 1 0.85] daily = Residencial bus = BT_644674.1.2.4 kv = 0.22 pf = 0.92 kw = 0.293403  conn = delta

New load.362771 phases = 1 model = 8 ZIPV = [0.5 0 0.5 0 0 1 0.85] daily = Residencial bus = BT_644653.1.2.4 kv = 0.22 pf = 0.92 kw = 0.25162  conn = delta

New load.362784 phases = 1 model = 8 ZIPV = [0.5 0 0.5 0 0 1 0.85] daily = Residencial bus = BT_643526.2.3.4 kv = 0.22 pf = 0.92 kw = 0.156829  conn = delta

New load.362785 phases = 1 model = 8 ZIPV = [0.5 0 0.5 0 0 1 0.85] daily = Residencial bus = BT_643344.1.2.4 kv = 0.22 pf = 0.92 kw = 0.170949  conn = delta

New load.362786 phases = 1 model = 8 ZIPV = [0.5 0 0.5 0 0 1 0.85] daily = Residencial bus = BT_643372.1.2.4 kv = 0.22 pf = 0.92 kw = 0.377894  conn = delta

New load.362787 phases = 1 model = 8 ZIPV = [0.5 0 0.5 0 0 1 0.85] daily = Residencial bus = BT_643407.2.0 kv = 0.12 pf = 0.92 kw = 0.369676  conn = wye

New load.362788 phases = 1 model = 8 ZIPV = [0.5 0 0.5 0 0 1 0.85] daily = Residencial bus = BT_643351.1.2.4 kv = 0.22 pf = 0.92 kw = 0.276157  conn = delta

New load.362790 phases = 1 model = 8 ZIPV = [0.5 0 0.5 0 0 1 0.85] daily = Residencial bus = BT_642686.1.2.4 kv = 0.22 pf = 0.92 kw = 0.24375  conn = delta

New load.362791 phases = 1 model = 8 ZIPV = [0.5 0 0.5 0 0 1 0.85] daily = Residencial bus = BT_642910.2.4 kv = 0.12 pf = 0.92 kw = 0.16956  conn = wye

New load.362792 phases = 1 model = 8 ZIPV = [0.5 0 0.5 0 0 1 0.85] daily = Residencial bus = BT_642945.2.4 kv = 0.12 pf = 0.92 kw = 0.284259  conn = wye

New load.362793 phases = 1 model = 8 ZIPV = [0.5 0 0.5 0 0 1 0.85] daily = Residencial bus = BT_642679.2.4 kv = 0.12 pf = 0.92 kw = 0.250926  conn = wye

New load.362794 phases = 1 model = 8 ZIPV = [0.5 0 0.5 0 0 1 0.85] daily = Residencial bus = BT_642679.1.4 kv = 0.12 pf = 0.92 kw = 0.25  conn = wye

New load.362796 phases = 1 model = 8 ZIPV = [0.5 0 0.5 0 0 1 0.85] daily = Residencial bus = BT_642952.1.0 kv = 0.12 pf = 0.92 kw = 0.240741  conn = wye

New load.362797 phases = 1 model = 8 ZIPV = [0.5 0 0.5 0 0 1 0.85] daily = Residencial bus = BT_642966.1.2.4 kv = 0.22 pf = 0.92 kw = 0.154282  conn = delta

New load.423215 phases = 1 model = 8 ZIPV = [0.5 0 0.5 0 0 1 0.85] daily = Residencial bus = BT_645983.1.2.4 kv = 0.22 pf = 0.92 kw = 0.16169  conn = delta

New load.423216 phases = 1 model = 8 ZIPV = [0.5 0 0.5 0 0 1 0.85] daily = Residencial bus = BT_645584.2.4 kv = 0.12 pf = 0.92 kw = 0.173843  conn = wye

New load.423217 phases = 1 model = 8 ZIPV = [0.5 0 0.5 0 0 1 0.85] daily = Residencial bus = BT_645570.1.2.4 kv = 0.22 pf = 0.92 kw = 0.146528  conn = delta

New load.423218 phases = 1 model = 8 ZIPV = [0.5 0 0.5 0 0 1 0.85] daily = Residencial bus = BT_644870.1.2.4 kv = 0.22 pf = 0.92 kw = 0.167593  conn = delta

New load.423219 phases = 1 model = 8 ZIPV = [0.5 0 0.5 0 0 1 0.85] daily = Residencial bus = BT_644870.1.2.4 kv = 0.22 pf = 0.92 kw = 0.123495  conn = delta

New load.423220 phases = 1 model = 8 ZIPV = [0.5 0 0.5 0 0 1 0.85] daily = Residencial bus = BT_644849.1.4 kv = 0.12 pf = 0.92 kw = 0.122917  conn = wye

New load.423221 phases = 1 model = 8 ZIPV = [0.5 0 0.5 0 0 1 0.85] daily = Residencial bus = BT_644821.2.0 kv = 0.12 pf = 0.92 kw = 0.184144  conn = wye

New load.423222 phases = 1 model = 8 ZIPV = [0.5 0 0.5 0 0 1 0.85] daily = Residencial bus = BT_644289.1.4 kv = 0.12 pf = 0.92 kw = 0.148148  conn = wye

New load.423223 phases = 1 model = 8 ZIPV = [0.5 0 0.5 0 0 1 0.85] daily = Residencial bus = BT_644289.1.4 kv = 0.12 pf = 0.92 kw = 0.122454  conn = wye

New load.423224 phases = 1 model = 8 ZIPV = [0.5 0 0.5 0 0 1 0.85] daily = Residencial bus = BT_644282.2.4 kv = 0.12 pf = 0.92 kw = 0.14456  conn = wye

New load.423225 phases = 1 model = 8 ZIPV = [0.5 0 0.5 0 0 1 0.85] daily = Residencial bus = BT_644268.1.2.4 kv = 0.22 pf = 0.92 kw = 0.123843  conn = delta

New load.423226 phases = 1 model = 8 ZIPV = [0.5 0 0.5 0 0 1 0.85] daily = Residencial bus = BT_644268.2.4 kv = 0.12 pf = 0.92 kw = 0.115625  conn = wye

New load.423227 phases = 1 model = 8 ZIPV = [0.5 0 0.5 0 0 1 0.85] daily = Residencial bus = BT_644212.2.4 kv = 0.127 pf = 0.92 kw = 0.147338  conn = wye

New load.423228 phases = 1 model = 8 ZIPV = [0.5 0 0.5 0 0 1 0.85] daily = Residencial bus = BT_644807.1.2.4 kv = 0.22 pf = 0.92 kw = 0.1  conn = delta

New load.423229 phases = 1 model = 8 ZIPV = [0.5 0 0.5 0 0 1 0.85] daily = Residencial bus = BT_644821.1.0 kv = 0.12 pf = 0.92 kw = 0.158912  conn = wye

New load.423230 phases = 1 model = 8 ZIPV = [0.5 0 0.5 0 0 1 0.85] daily = Residencial bus = BT_644821.1.2.0 kv = 0.22 pf = 0.92 kw = 0.110301  conn = delta

New load.423231 phases = 1 model = 8 ZIPV = [0.5 0 0.5 0 0 1 0.85] daily = Residencial bus = BT_644828.1.2.4 kv = 0.22 pf = 0.92 kw = 0.123958  conn = delta

New load.423232 phases = 1 model = 8 ZIPV = [0.5 0 0.5 0 0 1 0.85] daily = Residencial bus = BT_644891.2.4 kv = 0.12 pf = 0.92 kw = 0.202083  conn = wye

New load.423233 phases = 1 model = 8 ZIPV = [0.5 0 0.5 0 0 1 0.85] daily = Residencial bus = BT_644891.1.4 kv = 0.12 pf = 0.92 kw = 0.121528  conn = wye

New load.423234 phases = 1 model = 8 ZIPV = [0.5 0 0.5 0 0 1 0.85] daily = Residencial bus = BT_644884.1.4 kv = 0.12 pf = 0.92 kw = 0.189583  conn = wye

New load.423235 phases = 1 model = 8 ZIPV = [0.5 0 0.5 0 0 1 0.85] daily = Residencial bus = BT_645584.2.4 kv = 0.12 pf = 0.92 kw = 0.112037  conn = wye

New load.423236 phases = 1 model = 8 ZIPV = [0.5 0 0.5 0 0 1 0.85] daily = Residencial bus = BT_645584.1.4 kv = 0.12 pf = 0.92 kw = 0.197106  conn = wye

New load.423237 phases = 1 model = 8 ZIPV = [0.5 0 0.5 0 0 1 0.85] daily = Residencial bus = BT_645591.2.4 kv = 0.12 pf = 0.92 kw = 0.239468  conn = wye

New load.423238 phases = 1 model = 8 ZIPV = [0.5 0 0.5 0 0 1 0.85] daily = Residencial bus = BT_646032.2.3.4 kv = 0.22 pf = 0.92 kw = 0.119329  conn = delta

New load.423239 phases = 1 model = 8 ZIPV = [0.5 0 0.5 0 0 1 0.85] daily = Residencial bus = BT_646018.2.4 kv = 0.127 pf = 0.92 kw = 0.130324  conn = wye

New load.423240 phases = 1 model = 8 ZIPV = [0.5 0 0.5 0 0 1 0.85] daily = Residencial bus = BT_796000.1.2.0 kv = 0.22 pf = 0.92 kw = 0.195833  conn = delta

New load.423241 phases = 1 model = 8 ZIPV = [0.5 0 0.5 0 0 1 0.85] daily = Residencial bus = BT_646690.3.1.4 kv = 0.22 pf = 0.92 kw = 0.119676  conn = delta

New load.423242 phases = 3 model = 8 ZIPV = [0.5 0 0.5 0 0 1 0.85] daily = Residencial bus = BT_646704.1.2.3.0 kv = 0.22 pf = 0.92 kw = 0.0944444  conn = delta

New load.423243 phases = 1 model = 8 ZIPV = [0.5 0 0.5 0 0 1 0.85] daily = Residencial bus = BT_646711.3.1.4 kv = 0.22 pf = 0.92 kw = 0.152431  conn = delta

New load.423244 phases = 1 model = 8 ZIPV = [0.5 0 0.5 0 0 1 0.85] daily = Residencial bus = BT_646711.3.4 kv = 0.127 pf = 0.92 kw = 0.224306  conn = wye

New load.423245 phases = 3 model = 8 ZIPV = [0.5 0 0.5 0 0 1 0.85] daily = Residencial bus = BT_646711.1.2.3.4 kv = 0.22 pf = 0.92 kw = 0.182986  conn = delta

New load.423246 phases = 1 model = 8 ZIPV = [0.5 0 0.5 0 0 1 0.85] daily = Residencial bus = BT_647362.1.4 kv = 0.127 pf = 0.92 kw = 0.150463  conn = wye

New load.423247 phases = 1 model = 8 ZIPV = [0.5 0 0.5 0 0 1 0.85] daily = Residencial bus = BT_647334.2.4 kv = 0.127 pf = 0.92 kw = 0.191088  conn = wye

New load.423248 phases = 1 model = 8 ZIPV = [0.5 0 0.5 0 0 1 0.85] daily = Residencial bus = BT_647334.1.2.4 kv = 0.22 pf = 0.92 kw = 0.202894  conn = delta

New load.423249 phases = 3 model = 8 ZIPV = [0.5 0 0.5 0 0 1 0.85] daily = Residencial bus = BT_647369.1.2.3.0 kv = 0.22 pf = 0.92 kw = 0.153819  conn = delta

New load.423250 phases = 1 model = 8 ZIPV = [0.5 0 0.5 0 0 1 0.85] daily = Residencial bus = BT_646452.1.2.4 kv = 0.22 pf = 0.92 kw = 0.134144  conn = delta
