New load.7165922 phases = 1 model = 8 ZIPV = [0.5 0 0.5 0 0 1 0.85] daily = IP bus = BT_656238.1.2.4 kv = 0.22 pf = 0.92 kw = 0.0592593  conn = delta

New load.8560522 phases = 1 model = 8 ZIPV = [0.5 0 0.5 0 0 1 0.85] daily = IP bus = BT_655293.1.2.4 kv = 0.22 pf = 0.92 kw = 0.0872685  conn = delta

New load.8560523 phases = 1 model = 8 ZIPV = [0.5 0 0.5 0 0 1 0.85] daily = IP bus = BT_655293.3.1.4 kv = 0.22 pf = 0.92 kw = 0.0872685  conn = delta

New load.7165775 phases = 1 model = 8 ZIPV = [0.5 0 0.5 0 0 1 0.85] daily = IP bus = BT_655349.1.2.4 kv = 0.22 pf = 0.92 kw = 0.0592593  conn = delta

New load.7165852 phases = 1 model = 8 ZIPV = [0.5 0 0.5 0 0 1 0.85] daily = IP bus = BT_656266.1.2.4 kv = 0.22 pf = 0.92 kw = 0.0592593  conn = delta

New load.7599866 phases = 1 model = 8 ZIPV = [0.5 0 0.5 0 0 1 0.85] daily = IP bus = BT_655713.1.2.4 kv = 0.22 pf = 0.92 kw = 0.0592593  conn = delta

New load.8560524 phases = 1 model = 8 ZIPV = [0.5 0 0.5 0 0 1 0.85] daily = IP bus = BT_5378123.3.1.4 kv = 0.22 pf = 0.92 kw = 0.0872685  conn = delta

New load.1032095 phases = 1 model = 8 ZIPV = [0.5 0 0.5 0 0 1 0.85] daily = IP bus = BT_656973.1.2.4 kv = 0.22 pf = 0.92 kw = 0.0872685  conn = delta

New load.7371428 phases = 1 model = 8 ZIPV = [0.5 0 0.5 0 0 1 0.85] daily = IP bus = BT_656350.1.2.4 kv = 0.22 pf = 0.92 kw = 0.0872685  conn = delta

New load.7409431 phases = 1 model = 8 ZIPV = [0.5 0 0.5 0 0 1 0.85] daily = IP bus = BT_655685.1.2.4 kv = 0.22 pf = 0.92 kw = 0.0592593  conn = delta

New load.7371400 phases = 1 model = 8 ZIPV = [0.5 0 0.5 0 0 1 0.85] daily = IP bus = BT_657701.1.2.4 kv = 0.22 pf = 0.92 kw = 0.0872685  conn = delta

New load.7371379 phases = 1 model = 8 ZIPV = [0.5 0 0.5 0 0 1 0.85] daily = IP bus = BT_657750.1.2.4 kv = 0.22 pf = 0.92 kw = 0.0872685  conn = delta

New load.7409424 phases = 1 model = 8 ZIPV = [0.5 0 0.5 0 0 1 0.85] daily = IP bus = BT_655692.1.2.4 kv = 0.22 pf = 0.92 kw = 0.0592593  conn = delta

New load.1027244 phases = 1 model = 8 ZIPV = [0.5 0 0.5 0 0 1 0.85] daily = IP bus = BT_655265.1.2.4 kv = 0.22 pf = 0.92 kw = 0.0872685  conn = delta

New load.7599852 phases = 1 model = 8 ZIPV = [0.5 0 0.5 0 0 1 0.85] daily = IP bus = BT_656406.1.2.4 kv = 0.22 pf = 0.92 kw = 0.0872685  conn = delta

New load.7599859 phases = 1 model = 8 ZIPV = [0.5 0 0.5 0 0 1 0.85] daily = IP bus = BT_656406.1.2.4 kv = 0.22 pf = 0.92 kw = 0.0592593  conn = delta

New load.7409480 phases = 1 model = 8 ZIPV = [0.5 0 0.5 0 0 1 0.85] daily = IP bus = BT_656392.1.2.4 kv = 0.22 pf = 0.92 kw = 0.0592593  conn = delta

New load.7165796 phases = 1 model = 8 ZIPV = [0.5 0 0.5 0 0 1 0.85] daily = IP bus = BT_655300.1.2.4 kv = 0.22 pf = 0.92 kw = 0.0592593  conn = delta

New load.7165831 phases = 1 model = 8 ZIPV = [0.5 0 0.5 0 0 1 0.85] daily = IP bus = BT_655328.1.2.4 kv = 0.22 pf = 0.92 kw = 0.0592593  conn = delta

New load.7165782 phases = 1 model = 8 ZIPV = [0.5 0 0.5 0 0 1 0.85] daily = IP bus = BT_655342.1.2.4 kv = 0.22 pf = 0.92 kw = 0.0592593  conn = delta

New load.7409417 phases = 1 model = 8 ZIPV = [0.5 0 0.5 0 0 1 0.85] daily = IP bus = BT_655657.1.2.4 kv = 0.22 pf = 0.92 kw = 0.0592593  conn = delta

New load.7409438 phases = 1 model = 8 ZIPV = [0.5 0 0.5 0 0 1 0.85] daily = IP bus = BT_655671.1.2.4 kv = 0.22 pf = 0.92 kw = 0.0592593  conn = delta

New load.8606311 phases = 1 model = 8 ZIPV = [0.5 0 0.5 0 0 1 0.85] daily = IP bus = BT_655272.1.2.4 kv = 0.22 pf = 0.92 kw = 0.0872685  conn = delta

New load.7409494 phases = 1 model = 8 ZIPV = [0.5 0 0.5 0 0 1 0.85] daily = IP bus = BT_656399.1.2.4 kv = 0.22 pf = 0.92 kw = 0.0592593  conn = delta

New load.7165894 phases = 1 model = 8 ZIPV = [0.5 0 0.5 0 0 1 0.85] daily = IP bus = BT_656217.1.2.4 kv = 0.22 pf = 0.92 kw = 0.0592593  conn = delta

New load.7165915 phases = 1 model = 8 ZIPV = [0.5 0 0.5 0 0 1 0.85] daily = IP bus = BT_656224.1.2.4 kv = 0.22 pf = 0.92 kw = 0.0592593  conn = delta

New load.7165880 phases = 1 model = 8 ZIPV = [0.5 0 0.5 0 0 1 0.85] daily = IP bus = BT_656210.1.2.4 kv = 0.22 pf = 0.92 kw = 0.0592593  conn = delta

New load.7165866 phases = 1 model = 8 ZIPV = [0.5 0 0.5 0 0 1 0.85] daily = IP bus = BT_656245.1.2.4 kv = 0.22 pf = 0.92 kw = 0.0592593  conn = delta

New load.7165810 phases = 1 model = 8 ZIPV = [0.5 0 0.5 0 0 1 0.85] daily = IP bus = BT_655307.1.2.4 kv = 0.22 pf = 0.92 kw = 0.0592593  conn = delta

New load.7165817 phases = 1 model = 8 ZIPV = [0.5 0 0.5 0 0 1 0.85] daily = IP bus = BT_655314.1.2.4 kv = 0.22 pf = 0.92 kw = 0.0592593  conn = delta

New load.7165824 phases = 1 model = 8 ZIPV = [0.5 0 0.5 0 0 1 0.85] daily = IP bus = BT_655321.1.2.4 kv = 0.22 pf = 0.92 kw = 0.0592593  conn = delta

New load.7371414 phases = 1 model = 8 ZIPV = [0.5 0 0.5 0 0 1 0.85] daily = IP bus = BT_656371.1.2.4 kv = 0.22 pf = 0.92 kw = 0.0872685  conn = delta

New load.7409452 phases = 1 model = 8 ZIPV = [0.5 0 0.5 0 0 1 0.85] daily = IP bus = BT_656378.1.2.4 kv = 0.22 pf = 0.92 kw = 0.0592593  conn = delta

New load.7409466 phases = 1 model = 8 ZIPV = [0.5 0 0.5 0 0 1 0.85] daily = IP bus = BT_656385.1.2.4 kv = 0.22 pf = 0.92 kw = 0.0592593  conn = delta

New load.7409403 phases = 1 model = 8 ZIPV = [0.5 0 0.5 0 0 1 0.85] daily = IP bus = BT_655699.1.2.4 kv = 0.22 pf = 0.92 kw = 0.0592593  conn = delta

New load.7409396 phases = 1 model = 8 ZIPV = [0.5 0 0.5 0 0 1 0.85] daily = IP bus = BT_655699.1.2.4 kv = 0.22 pf = 0.92 kw = 0.0592593  conn = delta

New load.7409382 phases = 1 model = 8 ZIPV = [0.5 0 0.5 0 0 1 0.85] daily = IP bus = BT_655706.1.2.4 kv = 0.22 pf = 0.92 kw = 0.0592593  conn = delta

New load.8606312 phases = 1 model = 8 ZIPV = [0.5 0 0.5 0 0 1 0.85] daily = IP bus = BT_655286.1.2.4 kv = 0.22 pf = 0.92 kw = 0.0872685  conn = delta

New load.7371456 phases = 1 model = 8 ZIPV = [0.5 0 0.5 0 0 1 0.85] daily = IP bus = BT_654684.1.2.4 kv = 0.22 pf = 0.92 kw = 0.0872685  conn = delta

New load.7371442 phases = 1 model = 8 ZIPV = [0.5 0 0.5 0 0 1 0.85] daily = IP bus = BT_656343.1.2.4 kv = 0.22 pf = 0.92 kw = 0.0872685  conn = delta

New load.7165964 phases = 1 model = 8 ZIPV = [0.5 0 0.5 0 0 1 0.85] daily = IP bus = BT_655356.1.2.4 kv = 0.22 pf = 0.92 kw = 0.0592593  conn = delta

New load.7165761 phases = 1 model = 8 ZIPV = [0.5 0 0.5 0 0 1 0.85] daily = IP bus = BT_655363.1.2.4 kv = 0.22 pf = 0.92 kw = 0.0592593  conn = delta

New load.7165859 phases = 1 model = 8 ZIPV = [0.5 0 0.5 0 0 1 0.85] daily = IP bus = BT_656252.1.2.4 kv = 0.22 pf = 0.92 kw = 0.0592593  conn = delta

New load.1029995 phases = 1 model = 8 ZIPV = [0.5 0 0.5 0 0 1 0.85] daily = IP bus = BT_656259.1.2.4 kv = 0.22 pf = 0.92 kw = 0.0872685  conn = delta

New load.4583419 phases = 1 model = 8 ZIPV = [0.5 0 0.5 0 0 1 0.85] daily = IP bus = BT_656259.1.2.4 kv = 0.22 pf = 0.92 kw = 0.0872685  conn = delta

New load.7162723 phases = 1 model = 8 ZIPV = [0.5 0 0.5 0 0 1 0.85] daily = IP bus = BT_661943.1.2.4 kv = 0.22 pf = 0.92 kw = 0.0592593  conn = delta

New load.1046620 phases = 1 model = 8 ZIPV = [0.5 0 0.5 0 0 1 0.85] daily = IP bus = BT_661957.1.2.4 kv = 0.22 pf = 0.92 kw = 0.0872685  conn = delta

New load.1046956 phases = 1 model = 8 ZIPV = [0.5 0 0.5 0 0 1 0.85] daily = IP bus = BT_662069.3.1.4 kv = 0.22 pf = 0.92 kw = 0.0872685  conn = delta

New load.7162779 phases = 1 model = 8 ZIPV = [0.5 0 0.5 0 0 1 0.85] daily = IP bus = BT_662776.2.3.4 kv = 0.22 pf = 0.92 kw = 0.0592593  conn = delta

New load.7162828 phases = 1 model = 8 ZIPV = [0.5 0 0.5 0 0 1 0.85] daily = IP bus = BT_662783.2.3.4 kv = 0.22 pf = 0.92 kw = 0.0592593  conn = delta

New load.7162793 phases = 1 model = 8 ZIPV = [0.5 0 0.5 0 0 1 0.85] daily = IP bus = BT_662797.1.2.4 kv = 0.22 pf = 0.92 kw = 0.0592593  conn = delta

New load.1047019 phases = 1 model = 8 ZIPV = [0.5 0 0.5 0 0 1 0.85] daily = IP bus = BT_662090.1.2.4 kv = 0.22 pf = 0.92 kw = 0.0872685  conn = delta

New load.7167182 phases = 1 model = 8 ZIPV = [0.5 0 0.5 0 0 1 0.85] daily = IP bus = BT_662083.1.2.4 kv = 0.22 pf = 0.92 kw = 0.0592593  conn = delta

New load.7167154 phases = 1 model = 8 ZIPV = [0.5 0 0.5 0 0 1 0.85] daily = IP bus = BT_662097.1.2.4 kv = 0.22 pf = 0.92 kw = 0.0592593  conn = delta

New load.4583846 phases = 1 model = 8 ZIPV = [0.5 0 0.5 0 0 1 0.85] daily = IP bus = BT_660893.2.3.4 kv = 0.22 pf = 0.92 kw = 0.0872685  conn = delta

New load.7162744 phases = 1 model = 8 ZIPV = [0.5 0 0.5 0 0 1 0.85] daily = IP bus = BT_661978.3.1.4 kv = 0.22 pf = 0.92 kw = 0.0592593  conn = delta

New load.7372555 phases = 1 model = 8 ZIPV = [0.5 0 0.5 0 0 1 0.85] daily = IP bus = BT_661971.1.2.4 kv = 0.22 pf = 0.92 kw = 0.0872685  conn = delta

New load.1048727 phases = 1 model = 8 ZIPV = [0.5 0 0.5 0 0 1 0.85] daily = IP bus = BT_662664.1.2.4 kv = 0.22 pf = 0.92 kw = 0.0592593  conn = delta

New load.1048559 phases = 1 model = 8 ZIPV = [0.5 0 0.5 0 0 1 0.85] daily = IP bus = BT_662615.1.2.4 kv = 0.22 pf = 0.92 kw = 0.0592593  conn = delta

New load.7166510 phases = 1 model = 8 ZIPV = [0.5 0 0.5 0 0 1 0.85] daily = IP bus = BT_662671.1.2.4 kv = 0.22 pf = 0.92 kw = 0.0592593  conn = delta

New load.7166496 phases = 1 model = 8 ZIPV = [0.5 0 0.5 0 0 1 0.85] daily = IP bus = BT_662671.1.2.4 kv = 0.22 pf = 0.92 kw = 0.0592593  conn = delta

New load.7162884 phases = 1 model = 8 ZIPV = [0.5 0 0.5 0 0 1 0.85] daily = IP bus = BT_662762.2.3.4 kv = 0.22 pf = 0.92 kw = 0.0592593  conn = delta

New load.1048643 phases = 1 model = 8 ZIPV = [0.5 0 0.5 0 0 1 0.85] daily = IP bus = BT_662643.1.2.4 kv = 0.22 pf = 0.92 kw = 0.0872685  conn = delta

New load.7372520 phases = 1 model = 8 ZIPV = [0.5 0 0.5 0 0 1 0.85] daily = IP bus = BT_663049.2.3.4 kv = 0.22 pf = 0.92 kw = 0.0872685  conn = delta

New load.7162835 phases = 1 model = 8 ZIPV = [0.5 0 0.5 0 0 1 0.85] daily = IP bus = BT_662790.2.3.4 kv = 0.22 pf = 0.92 kw = 0.0592593  conn = delta

New load.7162877 phases = 1 model = 8 ZIPV = [0.5 0 0.5 0 0 1 0.85] daily = IP bus = BT_663112.1.2.4 kv = 0.22 pf = 0.92 kw = 0.0592593  conn = delta

New load.7163157 phases = 1 model = 8 ZIPV = [0.5 0 0.5 0 0 1 0.85] daily = IP bus = BT_663098.1.2.4 kv = 0.22 pf = 0.92 kw = 0.0592593  conn = delta

New load.7372513 phases = 1 model = 8 ZIPV = [0.5 0 0.5 0 0 1 0.85] daily = IP bus = BT_663105.1.2.4 kv = 0.22 pf = 0.92 kw = 0.0872685  conn = delta

New load.7480586 phases = 1 model = 8 ZIPV = [0.5 0 0.5 0 0 1 0.85] daily = IP bus = BT_663105.2.3.4 kv = 0.22 pf = 0.92 kw = 0.0872685  conn = delta

New load.1054222 phases = 1 model = 8 ZIPV = [0.5 0 0.5 0 0 1 0.85] daily = IP bus = BT_664631.2.3.4 kv = 0.22 pf = 0.92 kw = 0.0872685  conn = delta

New load.7166503 phases = 1 model = 8 ZIPV = [0.5 0 0.5 0 0 1 0.85] daily = IP bus = BT_662657.1.2.4 kv = 0.22 pf = 0.92 kw = 0.0592593  conn = delta

New load.7166902 phases = 1 model = 8 ZIPV = [0.5 0 0.5 0 0 1 0.85] daily = IP bus = BT_662580.1.2.4 kv = 0.22 pf = 0.92 kw = 0.0592593  conn = delta

New load.7166804 phases = 1 model = 8 ZIPV = [0.5 0 0.5 0 0 1 0.85] daily = IP bus = BT_664638.1.2.4 kv = 0.22 pf = 0.92 kw = 0.0592593  conn = delta

New load.1054264 phases = 1 model = 8 ZIPV = [0.5 0 0.5 0 0 1 0.85] daily = IP bus = BT_664645.2.3.4 kv = 0.22 pf = 0.92 kw = 0.0872685  conn = delta

New load.7166636 phases = 1 model = 8 ZIPV = [0.5 0 0.5 0 0 1 0.85] daily = IP bus = BT_664799.1.2.4 kv = 0.22 pf = 0.92 kw = 0.0592593  conn = delta

New load.7166643 phases = 1 model = 8 ZIPV = [0.5 0 0.5 0 0 1 0.85] daily = IP bus = BT_664813.2.3.4 kv = 0.22 pf = 0.92 kw = 0.0592593  conn = delta

New load.7372562 phases = 1 model = 8 ZIPV = [0.5 0 0.5 0 0 1 0.85] daily = IP bus = BT_661985.2.3.4 kv = 0.22 pf = 0.92 kw = 0.0872685  conn = delta

New load.7166958 phases = 1 model = 8 ZIPV = [0.5 0 0.5 0 0 1 0.85] daily = IP bus = BT_662552.1.2.4 kv = 0.22 pf = 0.92 kw = 0.0592593  conn = delta

New load.7166951 phases = 1 model = 8 ZIPV = [0.5 0 0.5 0 0 1 0.85] daily = IP bus = BT_662559.1.2.4 kv = 0.22 pf = 0.92 kw = 0.0592593  conn = delta

New load.7166916 phases = 1 model = 8 ZIPV = [0.5 0 0.5 0 0 1 0.85] daily = IP bus = BT_662566.3.1.4 kv = 0.22 pf = 0.92 kw = 0.0465278  conn = delta

New load.7166909 phases = 1 model = 8 ZIPV = [0.5 0 0.5 0 0 1 0.85] daily = IP bus = BT_662573.3.1.4 kv = 0.22 pf = 0.92 kw = 0.0465278  conn = delta

New load.7372541 phases = 1 model = 8 ZIPV = [0.5 0 0.5 0 0 1 0.85] daily = IP bus = BT_663014.2.3.4 kv = 0.22 pf = 0.92 kw = 0.0872685  conn = delta

New load.7372534 phases = 1 model = 8 ZIPV = [0.5 0 0.5 0 0 1 0.85] daily = IP bus = BT_663021.3.1.4 kv = 0.22 pf = 0.92 kw = 0.0872685  conn = delta

New load.7480593 phases = 1 model = 8 ZIPV = [0.5 0 0.5 0 0 1 0.85] daily = IP bus = BT_663021.1.2.4 kv = 0.22 pf = 0.92 kw = 0.0872685  conn = delta

New load.7372527 phases = 1 model = 8 ZIPV = [0.5 0 0.5 0 0 1 0.85] daily = IP bus = BT_663028.2.3.4 kv = 0.22 pf = 0.92 kw = 0.0872685  conn = delta

New load.1048622 phases = 1 model = 8 ZIPV = [0.5 0 0.5 0 0 1 0.85] daily = IP bus = BT_662636.2.3.4 kv = 0.22 pf = 0.92 kw = 0.0872685  conn = delta

New load.7166944 phases = 1 model = 8 ZIPV = [0.5 0 0.5 0 0 1 0.85] daily = IP bus = BT_662629.1.2.4 kv = 0.22 pf = 0.92 kw = 0.0592593  conn = delta

New load.7372506 phases = 1 model = 8 ZIPV = [0.5 0 0.5 0 0 1 0.85] daily = IP bus = BT_663812.1.2.4 kv = 0.22 pf = 0.92 kw = 0.0872685  conn = delta

New load.7372457 phases = 1 model = 8 ZIPV = [0.5 0 0.5 0 0 1 0.85] daily = IP bus = BT_663896.1.2.4 kv = 0.22 pf = 0.92 kw = 0.0872685  conn = delta

New load.7372443 phases = 1 model = 8 ZIPV = [0.5 0 0.5 0 0 1 0.85] daily = IP bus = BT_663903.1.2.4 kv = 0.22 pf = 0.92 kw = 0.0872685  conn = delta

New load.7162765 phases = 1 model = 8 ZIPV = [0.5 0 0.5 0 0 1 0.85] daily = IP bus = BT_662755.2.3.4 kv = 0.22 pf = 0.92 kw = 0.0592593  conn = delta

New load.7162807 phases = 1 model = 8 ZIPV = [0.5 0 0.5 0 0 1 0.85] daily = IP bus = BT_662769.1.2.4 kv = 0.22 pf = 0.92 kw = 0.0592593  conn = delta

New load.7166573 phases = 1 model = 8 ZIPV = [0.5 0 0.5 0 0 1 0.85] daily = IP bus = BT_664197.1.2.4 kv = 0.22 pf = 0.92 kw = 0.0592593  conn = delta

New load.7166524 phases = 1 model = 8 ZIPV = [0.5 0 0.5 0 0 1 0.85] daily = IP bus = BT_664211.1.2.4 kv = 0.22 pf = 0.92 kw = 0.0592593  conn = delta

New load.7372569 phases = 1 model = 8 ZIPV = [0.5 0 0.5 0 0 1 0.85] daily = IP bus = BT_661992.2.3.4 kv = 0.22 pf = 0.92 kw = 0.0872685  conn = delta

New load.7409536 phases = 1 model = 8 ZIPV = [0.5 0 0.5 0 0 1 0.85] daily = IP bus = BT_657729.1.2.4 kv = 0.22 pf = 0.92 kw = 0.0592593  conn = delta

New load.7409543 phases = 1 model = 8 ZIPV = [0.5 0 0.5 0 0 1 0.85] daily = IP bus = BT_657736.1.2.4 kv = 0.22 pf = 0.92 kw = 0.0592593  conn = delta

New load.7167000 phases = 1 model = 8 ZIPV = [0.5 0 0.5 0 0 1 0.85] daily = IP bus = BT_662622.2.3.4 kv = 0.22 pf = 0.92 kw = 0.0592593  conn = delta

New load.1048685 phases = 1 model = 8 ZIPV = [0.5 0 0.5 0 0 1 0.85] daily = IP bus = BT_662118.3.1.4 kv = 0.22 pf = 0.92 kw = 0.0592593  conn = delta

New load.7371183 phases = 1 model = 8 ZIPV = [0.5 0 0.5 0 0 1 0.85] daily = IP bus = BT_657806.1.2.4 kv = 0.22 pf = 0.92 kw = 0.0872685  conn = delta

New load.7371197 phases = 1 model = 8 ZIPV = [0.5 0 0.5 0 0 1 0.85] daily = IP bus = BT_657820.1.2.4 kv = 0.22 pf = 0.92 kw = 0.0872685  conn = delta

New load.7372653 phases = 1 model = 8 ZIPV = [0.5 0 0.5 0 0 1 0.85] daily = IP bus = BT_663196.1.2.4 kv = 0.22 pf = 0.92 kw = 0.0872685  conn = delta

New load.7372660 phases = 1 model = 8 ZIPV = [0.5 0 0.5 0 0 1 0.85] daily = IP bus = BT_663196.1.2.4 kv = 0.22 pf = 0.92 kw = 0.0872685  conn = delta

New load.7162919 phases = 1 model = 8 ZIPV = [0.5 0 0.5 0 0 1 0.85] daily = IP bus = BT_662734.1.2.4 kv = 0.22 pf = 0.92 kw = 0.0592593  conn = delta

New load.7162912 phases = 1 model = 8 ZIPV = [0.5 0 0.5 0 0 1 0.85] daily = IP bus = BT_662741.3.1.4 kv = 0.22 pf = 0.92 kw = 0.0592593  conn = delta

New load.1049420 phases = 1 model = 8 ZIPV = [0.5 0 0.5 0 0 1 0.85] daily = IP bus = BT_662888.1.2.4 kv = 0.22 pf = 0.92 kw = 0.0872685  conn = delta

New load.1049399 phases = 1 model = 8 ZIPV = [0.5 0 0.5 0 0 1 0.85] daily = IP bus = BT_662881.1.2.4 kv = 0.22 pf = 0.92 kw = 0.0872685  conn = delta

New load.7167210 phases = 1 model = 8 ZIPV = [0.5 0 0.5 0 0 1 0.85] daily = IP bus = BT_658583.3.1.4 kv = 0.22 pf = 0.92 kw = 0.0592593  conn = delta

New load.7409522 phases = 1 model = 8 ZIPV = [0.5 0 0.5 0 0 1 0.85] daily = IP bus = BT_657715.1.2.4 kv = 0.22 pf = 0.92 kw = 0.0592593  conn = delta

New load.7371169 phases = 1 model = 8 ZIPV = [0.5 0 0.5 0 0 1 0.85] daily = IP bus = BT_657757.1.2.4 kv = 0.22 pf = 0.92 kw = 0.0872685  conn = delta

New load.7162996 phases = 1 model = 8 ZIPV = [0.5 0 0.5 0 0 1 0.85] daily = IP bus = BT_663042.1.2.4 kv = 0.22 pf = 0.92 kw = 0.0592593  conn = delta

New load.7162961 phases = 1 model = 8 ZIPV = [0.5 0 0.5 0 0 1 0.85] daily = IP bus = BT_663070.1.2.4 kv = 0.22 pf = 0.92 kw = 0.0592593  conn = delta

New load.1046935 phases = 1 model = 8 ZIPV = [0.5 0 0.5 0 0 1 0.85] daily = IP bus = BT_662062.1.2.4 kv = 0.22 pf = 0.92 kw = 0.0872685  conn = delta

New load.7167140 phases = 1 model = 8 ZIPV = [0.5 0 0.5 0 0 1 0.85] daily = IP bus = BT_662076.1.2.4 kv = 0.22 pf = 0.92 kw = 0.0592593  conn = delta

New load.7167168 phases = 1 model = 8 ZIPV = [0.5 0 0.5 0 0 1 0.85] daily = IP bus = BT_662111.1.2.4 kv = 0.22 pf = 0.92 kw = 0.0592593  conn = delta

New load.8341031 phases = 1 model = 8 ZIPV = [0.5 0 0.5 0 0 1 0.85] daily = IP bus = BT_662587.1.2.4 kv = 0.22 pf = 0.92 kw = 0.0592593  conn = delta

New load.7163171 phases = 1 model = 8 ZIPV = [0.5 0 0.5 0 0 1 0.85] daily = IP bus = BT_663959.1.2.4 kv = 0.22 pf = 0.92 kw = 0.0592593  conn = delta

New load.8560099 phases = 1 model = 8 ZIPV = [0.5 0 0.5 0 0 1 0.85] daily = IP bus = BT_663224.1.2.4 kv = 0.22 pf = 0.92 kw = 0.141204  conn = delta

New load.5181695 phases = 1 model = 8 ZIPV = [0.5 0 0.5 0 0 1 0.85] daily = IP bus = BT_663161.1.2.4 kv = 0.22 pf = 0.92 kw = 0.0592593  conn = delta

New load.7372597 phases = 1 model = 8 ZIPV = [0.5 0 0.5 0 0 1 0.85] daily = IP bus = BT_663161.1.2.4 kv = 0.22 pf = 0.92 kw = 0.0872685  conn = delta

New load.7372590 phases = 1 model = 8 ZIPV = [0.5 0 0.5 0 0 1 0.85] daily = IP bus = BT_663168.2.3.4 kv = 0.22 pf = 0.92 kw = 0.0872685  conn = delta

New load.7372646 phases = 1 model = 8 ZIPV = [0.5 0 0.5 0 0 1 0.85] daily = IP bus = BT_663175.1.2.4 kv = 0.22 pf = 0.92 kw = 0.0872685  conn = delta

New load.7371358 phases = 1 model = 8 ZIPV = [0.5 0 0.5 0 0 1 0.85] daily = IP bus = BT_658436.2.3.4 kv = 0.22 pf = 0.92 kw = 0.0872685  conn = delta

New load.7162653 phases = 1 model = 8 ZIPV = [0.5 0 0.5 0 0 1 0.85] daily = IP bus = BT_658807.1.2.4 kv = 0.22 pf = 0.92 kw = 0.0592593  conn = delta

New load.7162443 phases = 1 model = 8 ZIPV = [0.5 0 0.5 0 0 1 0.85] daily = IP bus = BT_658856.1.2.4 kv = 0.22 pf = 0.92 kw = 0.0592593  conn = delta

New load.7371351 phases = 1 model = 8 ZIPV = [0.5 0 0.5 0 0 1 0.85] daily = IP bus = BT_658443.1.2.4 kv = 0.22 pf = 0.92 kw = 0.0872685  conn = delta

New load.7168995 phases = 1 model = 8 ZIPV = [0.5 0 0.5 0 0 1 0.85] daily = IP bus = BT_658891.1.2.4 kv = 0.22 pf = 0.92 kw = 0.0592593  conn = delta

New load.7163108 phases = 1 model = 8 ZIPV = [0.5 0 0.5 0 0 1 0.85] daily = IP bus = BT_663840.1.2.4 kv = 0.22 pf = 0.92 kw = 0.0592593  conn = delta

New load.7163143 phases = 1 model = 8 ZIPV = [0.5 0 0.5 0 0 1 0.85] daily = IP bus = BT_663854.3.1.4 kv = 0.22 pf = 0.92 kw = 0.0592593  conn = delta

New load.7166594 phases = 1 model = 8 ZIPV = [0.5 0 0.5 0 0 1 0.85] daily = IP bus = BT_664274.1.2.4 kv = 0.22 pf = 0.92 kw = 0.0592593  conn = delta

New load.1040698 phases = 1 model = 8 ZIPV = [0.5 0 0.5 0 0 1 0.85] daily = IP bus = BT_659934.1.2.4 kv = 0.22 pf = 0.92 kw = 0.0872685  conn = delta

New load.1036820 phases = 1 model = 8 ZIPV = [0.5 0 0.5 0 0 1 0.85] daily = IP bus = BT_658632.1.2.4 kv = 0.22 pf = 0.92 kw = 0.0872685  conn = delta

New load.7166881 phases = 1 model = 8 ZIPV = [0.5 0 0.5 0 0 1 0.85] daily = IP bus = BT_662608.2.3.4 kv = 0.22 pf = 0.92 kw = 0.0592593  conn = delta

New load.7371302 phases = 1 model = 8 ZIPV = [0.5 0 0.5 0 0 1 0.85] daily = IP bus = BT_658506.1.2.4 kv = 0.22 pf = 0.92 kw = 0.0872685  conn = delta

New load.7371295 phases = 1 model = 8 ZIPV = [0.5 0 0.5 0 0 1 0.85] daily = IP bus = BT_658513.1.2.4 kv = 0.22 pf = 0.92 kw = 0.0872685  conn = delta

New load.1048517 phases = 1 model = 8 ZIPV = [0.5 0 0.5 0 0 1 0.85] daily = IP bus = BT_662601.1.2.4 kv = 0.22 pf = 0.92 kw = 0.0592593  conn = delta

New load.7166517 phases = 1 model = 8 ZIPV = [0.5 0 0.5 0 0 1 0.85] daily = IP bus = BT_662678.1.2.4 kv = 0.22 pf = 0.92 kw = 0.0592593  conn = delta

New load.7371372 phases = 1 model = 8 ZIPV = [0.5 0 0.5 0 0 1 0.85] daily = IP bus = BT_658429.1.2.4 kv = 0.22 pf = 0.92 kw = 0.0872685  conn = delta

New load.7371337 phases = 1 model = 8 ZIPV = [0.5 0 0.5 0 0 1 0.85] daily = IP bus = BT_658457.1.2.4 kv = 0.22 pf = 0.92 kw = 0.0872685  conn = delta

New load.1036631 phases = 1 model = 8 ZIPV = [0.5 0 0.5 0 0 1 0.85] daily = IP bus = BT_658569.3.1.4 kv = 0.22 pf = 0.92 kw = 0.0872685  conn = delta

New load.1036736 phases = 1 model = 8 ZIPV = [0.5 0 0.5 0 0 1 0.85] daily = IP bus = BT_658604.2.3.4 kv = 0.22 pf = 0.92 kw = 0.0872685  conn = delta

New load.1036778 phases = 1 model = 8 ZIPV = [0.5 0 0.5 0 0 1 0.85] daily = IP bus = BT_658618.1.2.4 kv = 0.22 pf = 0.92 kw = 0.0872685  conn = delta

New load.7167126 phases = 1 model = 8 ZIPV = [0.5 0 0.5 0 0 1 0.85] daily = IP bus = BT_660340.1.2.4 kv = 0.22 pf = 0.92 kw = 0.0592593  conn = delta

New load.7167084 phases = 1 model = 8 ZIPV = [0.5 0 0.5 0 0 1 0.85] daily = IP bus = BT_660354.1.2.4 kv = 0.22 pf = 0.92 kw = 0.0592593  conn = delta

New load.7167035 phases = 1 model = 8 ZIPV = [0.5 0 0.5 0 0 1 0.85] daily = IP bus = BT_660396.1.2.4 kv = 0.22 pf = 0.92 kw = 0.0592593  conn = delta

New load.7371386 phases = 1 model = 8 ZIPV = [0.5 0 0.5 0 0 1 0.85] daily = IP bus = BT_657687.1.2.4 kv = 0.22 pf = 0.92 kw = 0.0872685  conn = delta

New load.1034426 phases = 1 model = 8 ZIPV = [0.5 0 0.5 0 0 1 0.85] daily = IP bus = BT_657778.1.2.4 kv = 0.22 pf = 0.92 kw = 0.0872685  conn = delta

New load.7383139 phases = 1 model = 8 ZIPV = [0.5 0 0.5 0 0 1 0.85] daily = IP bus = BT_657771.1.2.4 kv = 0.22 pf = 0.92 kw = 0.0422454  conn = delta

New load.7165838 phases = 1 model = 8 ZIPV = [0.5 0 0.5 0 0 1 0.85] daily = IP bus = BT_655335.1.2.4 kv = 0.22 pf = 0.92 kw = 0.0592593  conn = delta

New load.7165873 phases = 1 model = 8 ZIPV = [0.5 0 0.5 0 0 1 0.85] daily = IP bus = BT_656231.1.2.4 kv = 0.22 pf = 0.92 kw = 0.0592593  conn = delta

New load.7163297 phases = 1 model = 8 ZIPV = [0.5 0 0.5 0 0 1 0.85] daily = IP bus = BT_661964.1.2.4 kv = 0.22 pf = 0.92 kw = 0.0592593  conn = delta

New load.7372583 phases = 1 model = 8 ZIPV = [0.5 0 0.5 0 0 1 0.85] daily = IP bus = BT_661964.1.2.4 kv = 0.22 pf = 0.92 kw = 0.0872685  conn = delta

New load.7165957 phases = 1 model = 8 ZIPV = [0.5 0 0.5 0 0 1 0.85] daily = IP bus = BT_660515.1.2.4 kv = 0.22 pf = 0.92 kw = 0.0592593  conn = delta

New load.7371176 phases = 1 model = 8 ZIPV = [0.5 0 0.5 0 0 1 0.85] daily = IP bus = BT_657792.1.2.4 kv = 0.22 pf = 0.92 kw = 0.0872685  conn = delta

New load.7371211 phases = 1 model = 8 ZIPV = [0.5 0 0.5 0 0 1 0.85] daily = IP bus = BT_657827.1.2.4 kv = 0.22 pf = 0.92 kw = 0.0872685  conn = delta

New load.7371246 phases = 1 model = 8 ZIPV = [0.5 0 0.5 0 0 1 0.85] daily = IP bus = BT_657841.1.2.4 kv = 0.22 pf = 0.92 kw = 0.0872685  conn = delta

New load.1039459 phases = 1 model = 8 ZIPV = [0.5 0 0.5 0 0 1 0.85] daily = IP bus = BT_659493.1.2.4 kv = 0.22 pf = 0.92 kw = 0.0872685  conn = delta

New load.1039501 phases = 1 model = 8 ZIPV = [0.5 0 0.5 0 0 1 0.85] daily = IP bus = BT_659507.1.2.4 kv = 0.22 pf = 0.92 kw = 0.0872685  conn = delta

New load.5181569 phases = 1 model = 8 ZIPV = [0.5 0 0.5 0 0 1 0.85] daily = IP bus = BT_5902087.1.2.4 kv = 0.22 pf = 0.92 kw = 0.0422454  conn = delta

New load.7166111 phases = 1 model = 8 ZIPV = [0.5 0 0.5 0 0 1 0.85] daily = IP bus = BT_658940.1.2.4 kv = 0.22 pf = 0.92 kw = 0.0592593  conn = delta

New load.7169002 phases = 1 model = 8 ZIPV = [0.5 0 0.5 0 0 1 0.85] daily = IP bus = BT_658926.1.2.4 kv = 0.22 pf = 0.92 kw = 0.0592593  conn = delta

New load.7166125 phases = 1 model = 8 ZIPV = [0.5 0 0.5 0 0 1 0.85] daily = IP bus = BT_658975.1.2.4 kv = 0.22 pf = 0.92 kw = 0.0592593  conn = delta

New load.1036715 phases = 1 model = 8 ZIPV = [0.5 0 0.5 0 0 1 0.85] daily = IP bus = BT_658597.1.2.4 kv = 0.22 pf = 0.92 kw = 0.0872685  conn = delta

New load.5181583 phases = 1 model = 8 ZIPV = [0.5 0 0.5 0 0 1 0.85] daily = IP bus = BT_658877.1.2.4 kv = 0.22 pf = 0.92 kw = 0.0422454  conn = delta

New load.7170836 phases = 1 model = 8 ZIPV = [0.5 0 0.5 0 0 1 0.85] daily = IP bus = BT_658877.1.2.4 kv = 0.22 pf = 0.92 kw = 0.0592593  conn = delta

New load.7885319 phases = 1 model = 8 ZIPV = [0.5 0 0.5 0 0 1 0.85] daily = IP bus = BT_658870.1.2.4 kv = 0.22 pf = 0.92 kw = 0.0592593  conn = delta

New load.7162464 phases = 1 model = 8 ZIPV = [0.5 0 0.5 0 0 1 0.85] daily = IP bus = BT_658849.1.2.4 kv = 0.22 pf = 0.92 kw = 0.0592593  conn = delta

New load.1037527 phases = 1 model = 8 ZIPV = [0.5 0 0.5 0 0 1 0.85] daily = IP bus = BT_658863.1.2.4 kv = 0.22 pf = 0.92 kw = 0.0592593  conn = delta

New load.7167427 phases = 1 model = 8 ZIPV = [0.5 0 0.5 0 0 1 0.85] daily = IP bus = BT_659640.3.1.4 kv = 0.22 pf = 0.92 kw = 0.0592593  conn = delta

New load.7167343 phases = 1 model = 8 ZIPV = [0.5 0 0.5 0 0 1 0.85] daily = IP bus = BT_659591.2.3.4 kv = 0.22 pf = 0.92 kw = 0.0592593  conn = delta

New load.7167364 phases = 1 model = 8 ZIPV = [0.5 0 0.5 0 0 1 0.85] daily = IP bus = BT_659591.1.2.4 kv = 0.22 pf = 0.92 kw = 0.0592593  conn = delta

New load.8559991 phases = 1 model = 8 ZIPV = [0.5 0 0.5 0 0 1 0.85] daily = IP bus = BT_659626.1.2.4 kv = 0.22 pf = 0.92 kw = 0.141204  conn = delta

New load.7166930 phases = 1 model = 8 ZIPV = [0.5 0 0.5 0 0 1 0.85] daily = IP bus = BT_659626.1.2.4 kv = 0.22 pf = 0.92 kw = 0.0592593  conn = delta

New load.7168960 phases = 1 model = 8 ZIPV = [0.5 0 0.5 0 0 1 0.85] daily = IP bus = BT_658576.1.2.4 kv = 0.22 pf = 0.92 kw = 0.0592593  conn = delta

New load.1036694 phases = 1 model = 8 ZIPV = [0.5 0 0.5 0 0 1 0.85] daily = IP bus = BT_658590.1.2.4 kv = 0.22 pf = 0.92 kw = 0.0872685  conn = delta

New load.7035575 phases = 1 model = 8 ZIPV = [0.5 0 0.5 0 0 1 0.85] daily = IP bus = BT_658590.1.2.4 kv = 0.22 pf = 0.92 kw = 0.0592593  conn = delta

New load.7372604 phases = 1 model = 8 ZIPV = [0.5 0 0.5 0 0 1 0.85] daily = IP bus = BT_663154.1.2.4 kv = 0.22 pf = 0.92 kw = 0.0872685  conn = delta

New load.7372625 phases = 1 model = 8 ZIPV = [0.5 0 0.5 0 0 1 0.85] daily = IP bus = BT_663189.2.3.4 kv = 0.22 pf = 0.92 kw = 0.0872685  conn = delta

New load.7409529 phases = 1 model = 8 ZIPV = [0.5 0 0.5 0 0 1 0.85] daily = IP bus = BT_657722.1.2.4 kv = 0.22 pf = 0.92 kw = 0.0592593  conn = delta

New load.7383132 phases = 1 model = 8 ZIPV = [0.5 0 0.5 0 0 1 0.85] daily = IP bus = BT_657785.1.2.4 kv = 0.22 pf = 0.92 kw = 0.0422454  conn = delta

New load.7371239 phases = 1 model = 8 ZIPV = [0.5 0 0.5 0 0 1 0.85] daily = IP bus = BT_657834.3.1.4 kv = 0.22 pf = 0.92 kw = 0.0872685  conn = delta

New load.8560472 phases = 1 model = 8 ZIPV = [0.5 0 0.5 0 0 1 0.85] daily = IP bus = BT_656938.1.2.4 kv = 0.22 pf = 0.92 kw = 0.0872685  conn = delta

New load.7372639 phases = 1 model = 8 ZIPV = [0.5 0 0.5 0 0 1 0.85] daily = IP bus = BT_663217.3.1.4 kv = 0.22 pf = 0.92 kw = 0.0872685  conn = delta

New load.5009670 phases = 1 model = 8 ZIPV = [0.5 0 0.5 0 0 1 0.85] daily = IP bus = BT_4920862.1.2.4 kv = 0.22 pf = 0.92 kw = 0.0422454  conn = delta

New load.7166097 phases = 1 model = 8 ZIPV = [0.5 0 0.5 0 0 1 0.85] daily = IP bus = BT_658954.1.2.4 kv = 0.22 pf = 0.92 kw = 0.0592593  conn = delta

New load.7166139 phases = 1 model = 8 ZIPV = [0.5 0 0.5 0 0 1 0.85] daily = IP bus = BT_658947.3.1.4 kv = 0.22 pf = 0.92 kw = 0.0592593  conn = delta

New load.7166146 phases = 1 model = 8 ZIPV = [0.5 0 0.5 0 0 1 0.85] daily = IP bus = BT_658947.3.1.4 kv = 0.22 pf = 0.92 kw = 0.0592593  conn = delta

New load.7169009 phases = 1 model = 8 ZIPV = [0.5 0 0.5 0 0 1 0.85] daily = IP bus = BT_658961.2.3.4 kv = 0.22 pf = 0.92 kw = 0.0592593  conn = delta

New load.7371281 phases = 1 model = 8 ZIPV = [0.5 0 0.5 0 0 1 0.85] daily = IP bus = BT_658485.1.2.4 kv = 0.22 pf = 0.92 kw = 0.0872685  conn = delta

New load.7371288 phases = 1 model = 8 ZIPV = [0.5 0 0.5 0 0 1 0.85] daily = IP bus = BT_658499.1.2.4 kv = 0.22 pf = 0.92 kw = 0.0872685  conn = delta

New load.1032116 phases = 1 model = 8 ZIPV = [0.5 0 0.5 0 0 1 0.85] daily = IP bus = BT_656980.1.2.4 kv = 0.22 pf = 0.92 kw = 0.0872685  conn = delta

New load.7371344 phases = 1 model = 8 ZIPV = [0.5 0 0.5 0 0 1 0.85] daily = IP bus = BT_658450.1.2.4 kv = 0.22 pf = 0.92 kw = 0.0872685  conn = delta

New load.7371309 phases = 1 model = 8 ZIPV = [0.5 0 0.5 0 0 1 0.85] daily = IP bus = BT_658492.1.2.4 kv = 0.22 pf = 0.92 kw = 0.0872685  conn = delta

New load.5181597 phases = 1 model = 8 ZIPV = [0.5 0 0.5 0 0 1 0.85] daily = IP bus = BT_658905.1.2.4 kv = 0.22 pf = 0.92 kw = 0.0422454  conn = delta

New load.7165999 phases = 1 model = 8 ZIPV = [0.5 0 0.5 0 0 1 0.85] daily = IP bus = BT_658905.2.3.4 kv = 0.22 pf = 0.92 kw = 0.0592593  conn = delta

New load.7166090 phases = 1 model = 8 ZIPV = [0.5 0 0.5 0 0 1 0.85] daily = IP bus = BT_658912.2.3.4 kv = 0.22 pf = 0.92 kw = 0.0592593  conn = delta
