New transformer.273457 xhl = 3.636 windings = 2 %loadloss = 1.14444 %noloadloss = 0.377778  phases=3 
~ wdg = 1 bus = 643498.1.2.3 kv = 13.8 kva = 45 conn = delta %r = 1.522 tap = 0.9565 
~ wdg = 2 bus = BT_643498.1.2.3.0 kv = 0.22 kva = 45 conn = wye %r = 1.522 tap = 1

New transformer.273583 xhl = 3.721 windings = 2 %loadloss = 1 %noloadloss = 0.34  phases=3 
~ wdg = 1 bus = 644765.1.2.3 kv = 13.8 kva = 75 conn = delta %r = 1.34 tap = 0.9565 
~ wdg = 2 bus = BT_644765.1.2.3.0 kv = 0.22 kva = 75 conn = wye %r = 1.34 tap = 1

New transformer.273541 xhl = 3.721 windings = 2 %loadloss = 1 %noloadloss = 0.34  phases=3 
~ wdg = 1 bus = 644366.1.2.3 kv = 13.8 kva = 75 conn = delta %r = 1.34 tap = 0.9565 
~ wdg = 2 bus = BT_644366.1.2.3.0 kv = 0.22 kva = 75 conn = wye %r = 1.34 tap = 1

New transformer.273709 xhl = 3.564 windings = 2 %loadloss = 1.23333 %noloadloss = 0.433333  phases=3 
~ wdg = 1 bus = 646137.1.2.3 kv = 13.8 kva = 30 conn = delta %r = 1.667 tap = 0.9565 
~ wdg = 2 bus = BT_646137.1.2.3.0 kv = 0.22 kva = 30 conn = wye %r = 1.667 tap = 1

New transformer.273744 xhl = 3.636 windings = 2 %loadloss = 1.14444 %noloadloss = 0.377778  phases=3 
~ wdg = 1 bus = 646606.1.2.3 kv = 13.8 kva = 45 conn = delta %r = 1.522 tap = 0.9565 
~ wdg = 2 bus = BT_646606.1.2.3.0 kv = 0.22 kva = 45 conn = wye %r = 1.522 tap = 1

New transformer.1394006 xhl = 3.636 windings = 2 %loadloss = 1.14444 %noloadloss = 0.377778  phases=3 
~ wdg = 1 bus = 647453.1.2.3 kv = 13.8 kva = 45 conn = delta %r = 1.522 tap = 0.9565 
~ wdg = 2 bus = BT_647453.1.2.3.0 kv = 0.22 kva = 45 conn = wye %r = 1.522 tap = 1

New transformer.273688 xhl = 3.721 windings = 2 %loadloss = 1 %noloadloss = 0.34  phases=3 
~ wdg = 1 bus = 645850.1.2.3 kv = 13.8 kva = 75 conn = delta %r = 1.34 tap = 0.9565 
~ wdg = 2 bus = BT_645850.1.2.3.0 kv = 0.22 kva = 75 conn = wye %r = 1.34 tap = 1

New transformer.273674 xhl = 3.721 windings = 2 %loadloss = 1 %noloadloss = 0.34  phases=3 
~ wdg = 1 bus = 645731.1.2.3 kv = 13.8 kva = 75 conn = delta %r = 1.34 tap = 0.9565 
~ wdg = 2 bus = BT_645731.1.2.3.0 kv = 0.22 kva = 75 conn = wye %r = 1.34 tap = 1

New transformer.273653 xhl = 3.636 windings = 2 %loadloss = 1.14444 %noloadloss = 0.377778  phases=3 
~ wdg = 1 bus = 645563.1.2.3 kv = 13.8 kva = 45 conn = delta %r = 1.522 tap = 0.9565 
~ wdg = 2 bus = BT_645563.1.2.3.0 kv = 0.22 kva = 45 conn = wye %r = 1.522 tap = 1

New transformer.721492 xhl = 3.636 windings = 2 %loadloss = 1.14444 %noloadloss = 0.377778  phases=3 
~ wdg = 1 bus = 646403.1.2.3 kv = 13.8 kva = 45 conn = delta %r = 1.522 tap = 0.9565 
~ wdg = 2 bus = BT_646403.1.2.3.0 kv = 0.22 kva = 45 conn = wye %r = 1.522 tap = 1

New transformer.273555 xhl = 3.771 windings = 2 %loadloss = 0.924107 %noloadloss = 0.299107  phases=3 
~ wdg = 1 bus = 644485.1.2.3 kv = 13.8 kva = 112 conn = delta %r = 1.218 tap = 0.9565 
~ wdg = 2 bus = BT_644485.1.2.3.0 kv = 0.22 kva = 112 conn = wye %r = 1.218 tap = 1

New transformer.273723 xhl = 3.721 windings = 2 %loadloss = 1 %noloadloss = 0.34  phases=3 
~ wdg = 1 bus = 646361.1.2.3 kv = 13.8 kva = 75 conn = delta %r = 1.34 tap = 0.9565 
~ wdg = 2 bus = BT_646361.1.2.3.0 kv = 0.22 kva = 75 conn = wye %r = 1.34 tap = 1

New transformer.274073 xhl = 3.636 windings = 2 %loadloss = 1.14444 %noloadloss = 0.377778  phases=3 
~ wdg = 1 bus = 650169.1.2.3 kv = 13.8 kva = 45 conn = delta %r = 1.522 tap = 0.9565 
~ wdg = 2 bus = BT_650169.1.2.3.0 kv = 0.22 kva = 45 conn = wye %r = 1.522 tap = 1

New transformer.273849 xhl = 3.564 windings = 2 %loadloss = 1.23333 %noloadloss = 0.433333  phases=3 
~ wdg = 1 bus = 647698.1.2.3 kv = 13.8 kva = 30 conn = delta %r = 1.667 tap = 0.9565 
~ wdg = 2 bus = BT_647698.1.2.3.0 kv = 0.22 kva = 30 conn = wye %r = 1.667 tap = 1

New transformer.273996 xhl = 3.636 windings = 2 %loadloss = 1.14444 %noloadloss = 0.377778  phases=3 
~ wdg = 1 bus = 649301.1.2.3 kv = 13.8 kva = 45 conn = delta %r = 1.522 tap = 0.9565 
~ wdg = 2 bus = BT_649301.1.2.3.0 kv = 0.22 kva = 45 conn = wye %r = 1.522 tap = 1

New transformer.273989 xhl = 3.636 windings = 2 %loadloss = 1.14444 %noloadloss = 0.377778  phases=3 
~ wdg = 1 bus = 649224.1.2.3 kv = 13.8 kva = 45 conn = delta %r = 1.522 tap = 0.9565 
~ wdg = 2 bus = BT_649224.1.2.3.0 kv = 0.22 kva = 45 conn = wye %r = 1.522 tap = 1

New transformer.273751 xhl = 3.636 windings = 2 %loadloss = 1.14444 %noloadloss = 0.377778  phases=3 
~ wdg = 1 bus = 646655.1.2.3 kv = 13.8 kva = 45 conn = delta %r = 1.522 tap = 0.9565 
~ wdg = 2 bus = BT_646655.1.2.3.0 kv = 0.22 kva = 45 conn = wye %r = 1.522 tap = 1

New transformer.273758 xhl = 3.636 windings = 2 %loadloss = 1.14444 %noloadloss = 0.377778  phases=3 
~ wdg = 1 bus = 646704.1.2.3 kv = 13.8 kva = 45 conn = delta %r = 1.522 tap = 0.9565 
~ wdg = 2 bus = BT_646704.1.2.3.0 kv = 0.22 kva = 45 conn = wye %r = 1.522 tap = 1

New transformer.273513 xhl = 3.636 windings = 2 %loadloss = 1.14444 %noloadloss = 0.377778  phases=3 
~ wdg = 1 bus = 644135.1.2.3 kv = 13.8 kva = 45 conn = delta %r = 1.522 tap = 0.9565 
~ wdg = 2 bus = BT_644135.1.2.3.0 kv = 0.22 kva = 45 conn = wye %r = 1.522 tap = 1

New transformer.273646 xhl = 3.721 windings = 2 %loadloss = 1 %noloadloss = 0.34  phases=3 
~ wdg = 1 bus = 645451.1.2.3 kv = 13.8 kva = 75 conn = delta %r = 1.34 tap = 0.9565 
~ wdg = 2 bus = BT_645451.1.2.3.0 kv = 0.22 kva = 75 conn = wye %r = 1.34 tap = 1

New transformer.273702 xhl = 3.564 windings = 2 %loadloss = 1.23333 %noloadloss = 0.433333  phases=3 
~ wdg = 1 bus = 646053.1.2.3 kv = 13.8 kva = 30 conn = delta %r = 1.667 tap = 0.9565 
~ wdg = 2 bus = BT_646053.1.2.3.0 kv = 0.22 kva = 30 conn = wye %r = 1.667 tap = 1

New transformer.273912 xhl = 3.564 windings = 2 %loadloss = 1.23333 %noloadloss = 0.433333  phases=3 
~ wdg = 1 bus = 648342.1.2.3 kv = 13.8 kva = 30 conn = delta %r = 1.667 tap = 0.9565 
~ wdg = 2 bus = BT_648342.1.2.3.0 kv = 0.22 kva = 30 conn = wye %r = 1.667 tap = 1

New transformer.274136 xhl = 3.636 windings = 2 %loadloss = 1.14444 %noloadloss = 0.377778  phases=3 
~ wdg = 1 bus = 650918.1.2.3 kv = 13.8 kva = 45 conn = delta %r = 1.522 tap = 0.9565 
~ wdg = 2 bus = BT_650918.1.2.3.0 kv = 0.22 kva = 45 conn = wye %r = 1.522 tap = 1

New transformer.273968 xhl = 3.564 windings = 2 %loadloss = 1.23333 %noloadloss = 0.433333  phases=3 
~ wdg = 1 bus = 648944.1.2.3 kv = 13.8 kva = 30 conn = delta %r = 1.667 tap = 0.9565 
~ wdg = 2 bus = BT_648944.1.2.3.0 kv = 0.22 kva = 30 conn = wye %r = 1.667 tap = 1

New transformer.318754 xhl = 3.721 windings = 2 %loadloss = 1 %noloadloss = 0.34  phases=3 
~ wdg = 1 bus = 643477.1.2.3 kv = 13.8 kva = 75 conn = delta %r = 1.34 tap = 0.9565 
~ wdg = 2 bus = BT_643477.1.2.3.0 kv = 0.22 kva = 75 conn = wye %r = 1.34 tap = 1

New transformer.273730 xhl = 3.636 windings = 2 %loadloss = 1.14444 %noloadloss = 0.377778  phases=3 
~ wdg = 1 bus = 646438.1.2.3 kv = 13.8 kva = 45 conn = delta %r = 1.522 tap = 0.9565 
~ wdg = 2 bus = BT_646438.1.2.3.0 kv = 0.22 kva = 45 conn = wye %r = 1.522 tap = 1

New transformer.274052 xhl = 3.721 windings = 2 %loadloss = 1 %noloadloss = 0.34  phases=3 
~ wdg = 1 bus = 649833.1.2.3 kv = 13.8 kva = 75 conn = delta %r = 1.34 tap = 0.9565 
~ wdg = 2 bus = BT_649833.1.2.3.0 kv = 0.22 kva = 75 conn = wye %r = 1.34 tap = 1

New transformer.274024 xhl = 3.636 windings = 2 %loadloss = 1.14444 %noloadloss = 0.377778  phases=3 
~ wdg = 1 bus = 649546.1.2.3 kv = 13.8 kva = 45 conn = delta %r = 1.522 tap = 0.9565 
~ wdg = 2 bus = BT_649546.1.2.3.0 kv = 0.22 kva = 45 conn = wye %r = 1.522 tap = 1

New transformer.1409746 xhl = 3.636 windings = 2 %loadloss = 1.14444 %noloadloss = 0.377778  phases=3 
~ wdg = 1 bus = 651198.1.2.3 kv = 13.8 kva = 45 conn = delta %r = 1.522 tap = 0.9565 
~ wdg = 2 bus = BT_651198.1.2.3.0 kv = 0.22 kva = 45 conn = wye %r = 1.522 tap = 1

New transformer.273737 xhl = 3.564 windings = 2 %loadloss = 1.23333 %noloadloss = 0.433333  phases=3 
~ wdg = 1 bus = 646522.1.2.3 kv = 13.8 kva = 30 conn = delta %r = 1.667 tap = 0.9565 
~ wdg = 2 bus = BT_646522.1.2.3.0 kv = 0.22 kva = 30 conn = wye %r = 1.667 tap = 1

New transformer.274241 xhl = 3.636 windings = 2 %loadloss = 1.14444 %noloadloss = 0.377778  phases=3 
~ wdg = 1 bus = 652080.1.2.3 kv = 13.8 kva = 45 conn = delta %r = 1.522 tap = 0.9565 
~ wdg = 2 bus = BT_652080.1.2.3.0 kv = 0.22 kva = 45 conn = wye %r = 1.522 tap = 1

New transformer.273492 xhl = 3.721 windings = 2 %loadloss = 1 %noloadloss = 0.34  phases=3 
~ wdg = 1 bus = 643869.1.2.3 kv = 13.8 kva = 75 conn = delta %r = 1.34 tap = 0.9565 
~ wdg = 2 bus = BT_643869.1.2.3.0 kv = 0.22 kva = 75 conn = wye %r = 1.34 tap = 1

New transformer.1467696 xhl = 3.721 windings = 2 %loadloss = 1 %noloadloss = 0.34  phases=3 
~ wdg = 1 bus = 647446.1.2.3 kv = 13.8 kva = 75 conn = delta %r = 1.34 tap = 0.9565 
~ wdg = 2 bus = BT_647446.1.2.3.0 kv = 0.22 kva = 75 conn = wye %r = 1.34 tap = 1

New transformer.273499 xhl = 3.721 windings = 2 %loadloss = 1 %noloadloss = 0.34  phases=3 
~ wdg = 1 bus = 643988.1.2.3 kv = 13.8 kva = 75 conn = delta %r = 1.34 tap = 0.9565 
~ wdg = 2 bus = BT_643988.1.2.3.0 kv = 0.22 kva = 75 conn = wye %r = 1.34 tap = 1

New transformer.274094 xhl = 3.805 windings = 2 %loadloss = 0.846667 %noloadloss = 0.28  phases=3 
~ wdg = 1 bus = 650414.1.2.3 kv = 13.8 kva = 150 conn = delta %r = 1.127 tap = 0.9565 
~ wdg = 2 bus = BT_650414.1.2.3.0 kv = 0.22 kva = 150 conn = wye %r = 1.127 tap = 1

New transformer.273821 xhl = 3.564 windings = 2 %loadloss = 1.23333 %noloadloss = 0.433333  phases=3 
~ wdg = 1 bus = 647369.1.2.3 kv = 13.8 kva = 30 conn = delta %r = 1.667 tap = 0.9565 
~ wdg = 2 bus = BT_647369.1.2.3.0 kv = 0.22 kva = 30 conn = wye %r = 1.667 tap = 1

New transformer.273835 xhl = 3.636 windings = 2 %loadloss = 1.14444 %noloadloss = 0.377778  phases=3 
~ wdg = 1 bus = 647481.1.2.3 kv = 13.8 kva = 45 conn = delta %r = 1.522 tap = 0.9565 
~ wdg = 2 bus = BT_647481.1.2.3.0 kv = 0.22 kva = 45 conn = wye %r = 1.522 tap = 1

New transformer.274311 xhl = 3.721 windings = 2 %loadloss = 1 %noloadloss = 0.34  phases=3 
~ wdg = 1 bus = 652815.1.2.3 kv = 13.8 kva = 75 conn = delta %r = 1.34 tap = 0.9565 
~ wdg = 2 bus = BT_652815.1.2.3.0 kv = 0.22 kva = 75 conn = wye %r = 1.34 tap = 1

New transformer.274283 xhl = 3.636 windings = 2 %loadloss = 1.14444 %noloadloss = 0.377778  phases=3 
~ wdg = 1 bus = 652465.1.2.3 kv = 13.8 kva = 45 conn = delta %r = 1.522 tap = 0.9565 
~ wdg = 2 bus = BT_652465.1.2.3.0 kv = 0.22 kva = 45 conn = wye %r = 1.522 tap = 1

New transformer.274157 xhl = 3.564 windings = 2 %loadloss = 1.23333 %noloadloss = 0.433333  phases=3 
~ wdg = 1 bus = 651142.1.2.3 kv = 13.8 kva = 30 conn = delta %r = 1.667 tap = 0.9565 
~ wdg = 2 bus = BT_651142.1.2.3.0 kv = 0.22 kva = 30 conn = wye %r = 1.667 tap = 1

New transformer.273520 xhl = 3.564 windings = 2 %loadloss = 1.23333 %noloadloss = 0.433333  phases=3 
~ wdg = 1 bus = 644205.1.2.3 kv = 13.8 kva = 30 conn = delta %r = 1.667 tap = 0.9565 
~ wdg = 2 bus = BT_644205.1.2.3.0 kv = 0.22 kva = 30 conn = wye %r = 1.667 tap = 1

New transformer.273828 xhl = 3.721 windings = 2 %loadloss = 1 %noloadloss = 0.34  phases=3 
~ wdg = 1 bus = 647404.1.2.3 kv = 13.8 kva = 75 conn = delta %r = 1.34 tap = 0.9565 
~ wdg = 2 bus = BT_647404.1.2.3.0 kv = 0.22 kva = 75 conn = wye %r = 1.34 tap = 1

New transformer.274598 xhl = 3.636 windings = 2 %loadloss = 1.14444 %noloadloss = 0.377778  phases=3 
~ wdg = 1 bus = 656231.1.2.3 kv = 13.8 kva = 45 conn = delta %r = 1.522 tap = 0.9565 
~ wdg = 2 bus = BT_656231.1.2.3.0 kv = 0.22 kva = 45 conn = wye %r = 1.522 tap = 1

New transformer.274269 xhl = 3.636 windings = 2 %loadloss = 1.14444 %noloadloss = 0.377778  phases=3 
~ wdg = 1 bus = 652318.1.2.3 kv = 13.8 kva = 45 conn = delta %r = 1.522 tap = 0.9565 
~ wdg = 2 bus = BT_652318.1.2.3.0 kv = 0.22 kva = 45 conn = wye %r = 1.522 tap = 1

New transformer.273863 xhl = 3.771 windings = 2 %loadloss = 0.924107 %noloadloss = 0.299107  phases=3 
~ wdg = 1 bus = 647831.1.2.3 kv = 13.8 kva = 112 conn = delta %r = 1.218 tap = 0.9565 
~ wdg = 2 bus = BT_647831.1.2.3.0 kv = 0.22 kva = 112 conn = wye %r = 1.218 tap = 1

New transformer.274507 xhl = 3.636 windings = 2 %loadloss = 1.14444 %noloadloss = 0.377778  phases=3 
~ wdg = 1 bus = 655097.1.2.3 kv = 13.8 kva = 45 conn = delta %r = 1.522 tap = 0.9565 
~ wdg = 2 bus = BT_655097.1.2.3.0 kv = 0.22 kva = 45 conn = wye %r = 1.522 tap = 1

New transformer.274661 xhl = 3.721 windings = 2 %loadloss = 1 %noloadloss = 0.34  phases=3 
~ wdg = 1 bus = 656959.1.2.3 kv = 13.8 kva = 75 conn = delta %r = 1.34 tap = 0.9565 
~ wdg = 2 bus = BT_656959.1.2.3.0 kv = 0.22 kva = 75 conn = wye %r = 1.34 tap = 1

New transformer.1441021 xhl = 3.721 windings = 2 %loadloss = 1 %noloadloss = 0.34  phases=3 
~ wdg = 1 bus = 652591.1.2.3 kv = 13.8 kva = 75 conn = delta %r = 1.34 tap = 0.9565 
~ wdg = 2 bus = BT_652591.1.2.3.0 kv = 0.22 kva = 75 conn = wye %r = 1.34 tap = 1

New transformer.274472 xhl = 3.636 windings = 2 %loadloss = 1.14444 %noloadloss = 0.377778  phases=3 
~ wdg = 1 bus = 654670.1.2.3 kv = 13.8 kva = 45 conn = delta %r = 1.522 tap = 0.9565 
~ wdg = 2 bus = BT_654670.1.2.3.0 kv = 0.22 kva = 45 conn = wye %r = 1.522 tap = 1

New transformer.274990 xhl = 3.721 windings = 2 %loadloss = 1 %noloadloss = 0.34  phases=3 
~ wdg = 1 bus = 660347.1.2.3 kv = 13.8 kva = 75 conn = delta %r = 1.34 tap = 0.9565 
~ wdg = 2 bus = BT_660347.1.2.3.0 kv = 0.22 kva = 75 conn = wye %r = 1.34 tap = 1

New transformer.274528 xhl = 3.636 windings = 2 %loadloss = 1.14444 %noloadloss = 0.377778  phases=3 
~ wdg = 1 bus = 655328.1.2.3 kv = 13.8 kva = 45 conn = delta %r = 1.522 tap = 0.9565 
~ wdg = 2 bus = BT_655328.1.2.3.0 kv = 0.22 kva = 45 conn = wye %r = 1.522 tap = 1

New transformer.274920 xhl = 3.636 windings = 2 %loadloss = 1.14444 %noloadloss = 0.377778  phases=3 
~ wdg = 1 bus = 659605.1.2.3 kv = 13.8 kva = 45 conn = delta %r = 1.522 tap = 0.9565 
~ wdg = 2 bus = BT_659605.1.2.3.0 kv = 0.22 kva = 45 conn = wye %r = 1.522 tap = 1

New transformer.274738 xhl = 3.636 windings = 2 %loadloss = 1.14444 %noloadloss = 0.377778  phases=3 
~ wdg = 1 bus = 657806.1.2.3 kv = 13.8 kva = 45 conn = delta %r = 1.522 tap = 0.9565 
~ wdg = 2 bus = BT_657806.1.2.3.0 kv = 0.22 kva = 45 conn = wye %r = 1.522 tap = 1

New transformer.274857 xhl = 3.721 windings = 2 %loadloss = 1 %noloadloss = 0.34  phases=3 
~ wdg = 1 bus = 658940.1.2.3 kv = 13.8 kva = 75 conn = delta %r = 1.34 tap = 0.9565 
~ wdg = 2 bus = BT_658940.1.2.3.0 kv = 0.22 kva = 75 conn = wye %r = 1.34 tap = 1

New transformer.274913 xhl = 3.721 windings = 2 %loadloss = 1 %noloadloss = 0.34  phases=3 
~ wdg = 1 bus = 659528.1.2.3 kv = 13.8 kva = 75 conn = delta %r = 1.34 tap = 0.9565 
~ wdg = 2 bus = BT_659528.1.2.3.0 kv = 0.22 kva = 75 conn = wye %r = 1.34 tap = 1

New transformer.275242 xhl = 3.564 windings = 2 %loadloss = 1.23333 %noloadloss = 0.433333  phases=3 
~ wdg = 1 bus = 662895.1.2.3 kv = 13.8 kva = 30 conn = delta %r = 1.667 tap = 0.9565 
~ wdg = 2 bus = BT_662895.1.2.3.0 kv = 0.22 kva = 30 conn = wye %r = 1.667 tap = 1

New transformer.275074 xhl = 3.721 windings = 2 %loadloss = 1 %noloadloss = 0.34  phases=3 
~ wdg = 1 bus = 661341.1.2.3 kv = 13.8 kva = 75 conn = delta %r = 1.34 tap = 0.9565 
~ wdg = 2 bus = BT_661341.1.2.3.0 kv = 0.22 kva = 75 conn = wye %r = 1.34 tap = 1

New transformer.274850 xhl = 3.636 windings = 2 %loadloss = 1.14444 %noloadloss = 0.377778  phases=3 
~ wdg = 1 bus = 658828.1.2.3 kv = 13.8 kva = 45 conn = delta %r = 1.522 tap = 0.9565 
~ wdg = 2 bus = BT_658828.1.2.3.0 kv = 0.22 kva = 45 conn = wye %r = 1.522 tap = 1

New transformer.275158 xhl = 3.636 windings = 2 %loadloss = 1.14444 %noloadloss = 0.377778  phases=3 
~ wdg = 1 bus = 662083.1.2.3 kv = 13.8 kva = 45 conn = delta %r = 1.522 tap = 0.9565 
~ wdg = 2 bus = BT_662083.1.2.3.0 kv = 0.22 kva = 45 conn = wye %r = 1.522 tap = 1

New transformer.274381 xhl = 3.721 windings = 2 %loadloss = 1 %noloadloss = 0.34  phases=3 
~ wdg = 1 bus = 653613.1.2.3 kv = 13.8 kva = 75 conn = delta %r = 1.34 tap = 0.9565 
~ wdg = 2 bus = BT_653613.1.2.3.0 kv = 0.22 kva = 75 conn = wye %r = 1.34 tap = 1

New transformer.275214 xhl = 3.721 windings = 2 %loadloss = 1 %noloadloss = 0.34  phases=3 
~ wdg = 1 bus = 662650.1.2.3 kv = 13.8 kva = 75 conn = delta %r = 1.34 tap = 0.9565 
~ wdg = 2 bus = BT_662650.1.2.3.0 kv = 0.22 kva = 75 conn = wye %r = 1.34 tap = 1

New transformer.274521 xhl = 3.721 windings = 2 %loadloss = 1 %noloadloss = 0.34  phases=3 
~ wdg = 1 bus = 655237.1.2.3 kv = 13.8 kva = 75 conn = delta %r = 1.34 tap = 0.9565 
~ wdg = 2 bus = BT_655237.1.2.3.0 kv = 0.22 kva = 75 conn = wye %r = 1.34 tap = 1

New transformer.275256 xhl = 3.721 windings = 2 %loadloss = 1 %noloadloss = 0.34  phases=3 
~ wdg = 1 bus = 663084.1.2.3 kv = 13.8 kva = 75 conn = delta %r = 1.34 tap = 0.9565 
~ wdg = 2 bus = BT_663084.1.2.3.0 kv = 0.22 kva = 75 conn = wye %r = 1.34 tap = 1

New transformer.275032 xhl = 3.721 windings = 2 %loadloss = 1 %noloadloss = 0.34  phases=3 
~ wdg = 1 bus = 660886.1.2.3 kv = 13.8 kva = 75 conn = delta %r = 1.34 tap = 0.9565 
~ wdg = 2 bus = BT_660886.1.2.3.0 kv = 0.22 kva = 75 conn = wye %r = 1.34 tap = 1

New transformer.275004 xhl = 3.721 windings = 2 %loadloss = 1 %noloadloss = 0.34  phases=3 
~ wdg = 1 bus = 660564.1.2.3 kv = 13.8 kva = 75 conn = delta %r = 1.34 tap = 0.9565 
~ wdg = 2 bus = BT_660564.1.2.3.0 kv = 0.22 kva = 75 conn = wye %r = 1.34 tap = 1

New transformer.1392244 xhl = 3.636 windings = 2 %loadloss = 1.14444 %noloadloss = 0.377778  phases=3 
~ wdg = 1 bus = 656357.1.2.3 kv = 13.8 kva = 45 conn = delta %r = 1.522 tap = 0.9565 
~ wdg = 2 bus = BT_656357.1.2.3.0 kv = 0.22 kva = 45 conn = wye %r = 1.522 tap = 1

New transformer.274822 xhl = 3.721 windings = 2 %loadloss = 1 %noloadloss = 0.34  phases=3 
~ wdg = 1 bus = 658604.1.2.3 kv = 13.8 kva = 75 conn = delta %r = 1.34 tap = 0.9565 
~ wdg = 2 bus = BT_658604.1.2.3.0 kv = 0.22 kva = 75 conn = wye %r = 1.34 tap = 1

New transformer.275144 xhl = 3.721 windings = 2 %loadloss = 1 %noloadloss = 0.34  phases=3 
~ wdg = 1 bus = 661971.1.2.3 kv = 13.8 kva = 75 conn = delta %r = 1.34 tap = 0.9565 
~ wdg = 2 bus = BT_661971.1.2.3.0 kv = 0.22 kva = 75 conn = wye %r = 1.34 tap = 1

New transformer.275340 xhl = 3.636 windings = 2 %loadloss = 1.14444 %noloadloss = 0.377778  phases=3 
~ wdg = 1 bus = 663896.1.2.3 kv = 13.8 kva = 45 conn = delta %r = 1.522 tap = 0.9565 
~ wdg = 2 bus = BT_663896.1.2.3.0 kv = 0.22 kva = 45 conn = wye %r = 1.522 tap = 1

New transformer.275417 xhl = 3.721 windings = 2 %loadloss = 1 %noloadloss = 0.34  phases=3 
~ wdg = 1 bus = 664617.1.2.3 kv = 13.8 kva = 75 conn = delta %r = 1.34 tap = 0.9565 
~ wdg = 2 bus = BT_664617.1.2.3.0 kv = 0.22 kva = 75 conn = wye %r = 1.34 tap = 1

New transformer.274808 xhl = 3.636 windings = 2 %loadloss = 1.14444 %noloadloss = 0.377778  phases=3 
~ wdg = 1 bus = 658478.1.2.3 kv = 13.8 kva = 45 conn = delta %r = 1.522 tap = 0.9565 
~ wdg = 2 bus = BT_658478.1.2.3.0 kv = 0.22 kva = 45 conn = wye %r = 1.522 tap = 1

New transformer.275270 xhl = 3.721 windings = 2 %loadloss = 1 %noloadloss = 0.34  phases=3 
~ wdg = 1 bus = 663175.1.2.3 kv = 13.8 kva = 75 conn = delta %r = 1.34 tap = 0.9565 
~ wdg = 2 bus = BT_663175.1.2.3.0 kv = 0.22 kva = 75 conn = wye %r = 1.34 tap = 1

New transformer.275333 xhl = 3.721 windings = 2 %loadloss = 1 %noloadloss = 0.34  phases=3 
~ wdg = 1 bus = 663889.1.2.3 kv = 13.8 kva = 75 conn = delta %r = 1.34 tap = 0.9565 
~ wdg = 2 bus = BT_663889.1.2.3.0 kv = 0.22 kva = 75 conn = wye %r = 1.34 tap = 1

New transformer.275326 xhl = 3.721 windings = 2 %loadloss = 1 %noloadloss = 0.34  phases=3 
~ wdg = 1 bus = 663840.1.2.3 kv = 13.8 kva = 75 conn = delta %r = 1.34 tap = 0.9565 
~ wdg = 2 bus = BT_663840.1.2.3.0 kv = 0.22 kva = 75 conn = wye %r = 1.34 tap = 1

New transformer.275564 xhl = 3.564 windings = 2 %loadloss = 1.23333 %noloadloss = 0.433333  phases=3 
~ wdg = 1 bus = 666101.1.2.3 kv = 13.8 kva = 30 conn = delta %r = 1.667 tap = 0.9565 
~ wdg = 2 bus = BT_666101.1.2.3.0 kv = 0.22 kva = 30 conn = wye %r = 1.667 tap = 1

New transformer.275431 xhl = 3.721 windings = 2 %loadloss = 1 %noloadloss = 0.34  phases=3 
~ wdg = 1 bus = 664806.1.2.3 kv = 13.8 kva = 75 conn = delta %r = 1.34 tap = 0.9565 
~ wdg = 2 bus = BT_664806.1.2.3.0 kv = 0.22 kva = 75 conn = wye %r = 1.34 tap = 1

New transformer.274955 xhl = 3.721 windings = 2 %loadloss = 1 %noloadloss = 0.34  phases=3 
~ wdg = 1 bus = 659948.1.2.3 kv = 13.8 kva = 75 conn = delta %r = 1.34 tap = 0.9565 
~ wdg = 2 bus = BT_659948.1.2.3.0 kv = 0.22 kva = 75 conn = wye %r = 1.34 tap = 1

New transformer.275361 xhl = 3.721 windings = 2 %loadloss = 1 %noloadloss = 0.34  phases=3 
~ wdg = 1 bus = 664225.1.2.3 kv = 13.8 kva = 75 conn = delta %r = 1.34 tap = 0.9565 
~ wdg = 2 bus = BT_664225.1.2.3.0 kv = 0.22 kva = 75 conn = wye %r = 1.34 tap = 1

New transformer.275207 xhl = 3.636 windings = 2 %loadloss = 1.14444 %noloadloss = 0.377778  phases=3 
~ wdg = 1 bus = 662587.1.2.3 kv = 13.8 kva = 45 conn = delta %r = 1.522 tap = 0.9565 
~ wdg = 2 bus = BT_662587.1.2.3.0 kv = 0.22 kva = 45 conn = wye %r = 1.522 tap = 1

New transformer.275228 xhl = 3.636 windings = 2 %loadloss = 1.14444 %noloadloss = 0.377778  phases=3 
~ wdg = 1 bus = 662755.1.2.3 kv = 13.8 kva = 45 conn = delta %r = 1.522 tap = 0.9565 
~ wdg = 2 bus = BT_662755.1.2.3.0 kv = 0.22 kva = 45 conn = wye %r = 1.522 tap = 1

New transformer.275515 xhl = 3.721 windings = 2 %loadloss = 1 %noloadloss = 0.34  phases=3 
~ wdg = 1 bus = 665639.1.2.3 kv = 13.8 kva = 75 conn = delta %r = 1.34 tap = 0.9565 
~ wdg = 2 bus = BT_665639.1.2.3.0 kv = 0.22 kva = 75 conn = wye %r = 1.34 tap = 1

New transformer.304866 xhl = 3.636 windings = 2 %loadloss = 1.14444 %noloadloss = 0.377778  phases=3 
~ wdg = 1 bus = 795972.1.2.3 kv = 13.8 kva = 45 conn = delta %r = 1.522 tap = 0.9565 
~ wdg = 2 bus = BT_795972.1.2.3.0 kv = 0.22 kva = 45 conn = wye %r = 1.522 tap = 1

New transformer.316255 xhl = 3.636 windings = 2 %loadloss = 1.14444 %noloadloss = 0.377778  phases=3 
~ wdg = 1 bus = 796000.1.2.3 kv = 13.8 kva = 45 conn = delta %r = 1.522 tap = 0.9565 
~ wdg = 2 bus = BT_796000.1.2.3.0 kv = 0.22 kva = 45 conn = wye %r = 1.522 tap = 1

New transformer.309276 xhl = 3.636 windings = 2 %loadloss = 1.14444 %noloadloss = 0.377778  phases=3 
~ wdg = 1 bus = 802846.1.2.3 kv = 13.8 kva = 45 conn = delta %r = 1.522 tap = 0.9565 
~ wdg = 2 bus = BT_802846.1.2.3.0 kv = 0.22 kva = 45 conn = wye %r = 1.522 tap = 1

New transformer.309290 xhl = 3.805 windings = 2 %loadloss = 0.846667 %noloadloss = 0.28  phases=3 
~ wdg = 1 bus = 802853.1.2.3 kv = 13.8 kva = 150 conn = delta %r = 1.127 tap = 0.9565 
~ wdg = 2 bus = BT_802853.1.2.3.0 kv = 0.22 kva = 150 conn = wye %r = 1.127 tap = 1

New transformer.1494668 xhl = 3.721 windings = 2 %loadloss = 1 %noloadloss = 0.34  phases=3 
~ wdg = 1 bus = 807102.1.2.3 kv = 13.8 kva = 75 conn = delta %r = 1.34 tap = 0.9565 
~ wdg = 2 bus = BT_807102.1.2.3.0 kv = 0.22 kva = 75 conn = wye %r = 1.34 tap = 1

New transformer.1473673 xhl = 3.721 windings = 2 %loadloss = 1 %noloadloss = 0.34  phases=3 
~ wdg = 1 bus = 806913.1.2.3 kv = 13.8 kva = 75 conn = delta %r = 1.34 tap = 0.9565 
~ wdg = 2 bus = BT_806913.1.2.3.0 kv = 0.22 kva = 75 conn = wye %r = 1.34 tap = 1

New transformer.312139 xhl = 3.636 windings = 2 %loadloss = 1.14444 %noloadloss = 0.377778  phases=3 
~ wdg = 1 bus = 808922.1.2.3 kv = 13.8 kva = 45 conn = delta %r = 1.522 tap = 0.9565 
~ wdg = 2 bus = BT_808922.1.2.3.0 kv = 0.22 kva = 45 conn = wye %r = 1.522 tap = 1

New transformer.311936 xhl = 3.805 windings = 2 %loadloss = 0.846667 %noloadloss = 0.28  phases=3 
~ wdg = 1 bus = 808103.1.2.3 kv = 13.8 kva = 150 conn = delta %r = 1.127 tap = 0.9565 
~ wdg = 2 bus = BT_808103.1.2.3.0 kv = 0.22 kva = 150 conn = wye %r = 1.127 tap = 1

New transformer.308814 xhl = 4.886 windings = 2 %loadloss = 0.425 %noloadloss = 0.105  phases=3 
~ wdg = 1 bus = 802377.1.2.3 kv = 13.8 kva = 2000 conn = delta %r = 1.06 tap = 0.9565 
~ wdg = 2 bus = BT_802377.1.2.3.0 kv = 0.22 kva = 2000 conn = wye %r = 1.06 tap = 1

New transformer.311649 xhl = 3.636 windings = 2 %loadloss = 1.14444 %noloadloss = 0.377778  phases=3 
~ wdg = 1 bus = 806955.1.2.3 kv = 13.8 kva = 45 conn = delta %r = 1.522 tap = 0.9565 
~ wdg = 2 bus = BT_806955.1.2.3.0 kv = 0.22 kva = 45 conn = wye %r = 1.522 tap = 1

New transformer.1430088 xhl = 3.636 windings = 2 %loadloss = 1.14444 %noloadloss = 0.377778  phases=3 
~ wdg = 1 bus = 807130.1.2.3 kv = 13.8 kva = 45 conn = delta %r = 1.522 tap = 0.9565 
~ wdg = 2 bus = BT_807130.1.2.3.0 kv = 0.22 kva = 45 conn = wye %r = 1.522 tap = 1

New transformer.311656 xhl = 3.721 windings = 2 %loadloss = 1 %noloadloss = 0.34  phases=3 
~ wdg = 1 bus = 807046.1.2.3 kv = 13.8 kva = 75 conn = delta %r = 1.34 tap = 0.9565 
~ wdg = 2 bus = BT_807046.1.2.3.0 kv = 0.22 kva = 75 conn = wye %r = 1.34 tap = 1

New transformer.311922 xhl = 3.805 windings = 2 %loadloss = 0.846667 %noloadloss = 0.28  phases=3 
~ wdg = 1 bus = 808082.1.2.3 kv = 13.8 kva = 150 conn = delta %r = 1.127 tap = 0.9565 
~ wdg = 2 bus = BT_808082.1.2.3.0 kv = 0.22 kva = 150 conn = wye %r = 1.127 tap = 1

New transformer.311642 xhl = 3.721 windings = 2 %loadloss = 1 %noloadloss = 0.34  phases=3 
~ wdg = 1 bus = 806857.1.2.3 kv = 13.8 kva = 75 conn = delta %r = 1.34 tap = 0.9565 
~ wdg = 2 bus = BT_806857.1.2.3.0 kv = 0.22 kva = 75 conn = wye %r = 1.34 tap = 1

New transformer.833513 xhl = 3.636 windings = 2 %loadloss = 1.14444 %noloadloss = 0.377778  phases=3 
~ wdg = 1 bus = 2291816.1.2.3 kv = 13.8 kva = 45 conn = delta %r = 1.522 tap = 0.9565 
~ wdg = 2 bus = BT_2291816.1.2.3.0 kv = 0.22 kva = 45 conn = wye %r = 1.522 tap = 1

New transformer.1276473 xhl = 3.636 windings = 2 %loadloss = 1.14444 %noloadloss = 0.377778  phases=3 
~ wdg = 1 bus = 2291837.1.2.3 kv = 13.8 kva = 45 conn = delta %r = 1.522 tap = 0.9565 
~ wdg = 2 bus = BT_2291837.1.2.3.0 kv = 0.22 kva = 45 conn = wye %r = 1.522 tap = 1

New transformer.778731 xhl = 4.864 windings = 2 %loadloss = 0.811111 %noloadloss = 0.248889  phases=3 
~ wdg = 1 bus = 3410668.1.2.3 kv = 13.8 kva = 225 conn = delta %r = 1.06 tap = 0.9565 
~ wdg = 2 bus = BT_3410668.1.2.3.0 kv = 0.22 kva = 225 conn = wye %r = 1.06 tap = 1

New transformer.782371 xhl = 3.721 windings = 2 %loadloss = 1 %noloadloss = 0.34  phases=3 
~ wdg = 1 bus = 3447796.1.2.3 kv = 13.8 kva = 75 conn = delta %r = 1.34 tap = 0.9565 
~ wdg = 2 bus = BT_3447796.1.2.3.0 kv = 0.22 kva = 75 conn = wye %r = 1.34 tap = 1

New transformer.796805 xhl = 3.805 windings = 2 %loadloss = 0.846667 %noloadloss = 0.28  phases=3 
~ wdg = 1 bus = 3603301.1.2.3 kv = 13.8 kva = 150 conn = delta %r = 1.127 tap = 0.9565 
~ wdg = 2 bus = BT_3603301.1.2.3.0 kv = 0.22 kva = 150 conn = wye %r = 1.127 tap = 1

New transformer.1439933 xhl = 3.721 windings = 2 %loadloss = 1 %noloadloss = 0.34  phases=3 
~ wdg = 1 bus = 3976191.1.2.3 kv = 13.8 kva = 75 conn = delta %r = 1.34 tap = 0.9565 
~ wdg = 2 bus = BT_3976191.1.2.3.0 kv = 0.22 kva = 75 conn = wye %r = 1.34 tap = 1

New transformer.853694 xhl = 3.805 windings = 2 %loadloss = 0.846667 %noloadloss = 0.28  phases=3 
~ wdg = 1 bus = 4778062.1.2.3 kv = 13.8 kva = 150 conn = delta %r = 1.127 tap = 0.9565 
~ wdg = 2 bus = BT_4778062.1.2.3.0 kv = 0.22 kva = 150 conn = wye %r = 1.127 tap = 1

New transformer.868555 xhl = 3.636 windings = 2 %loadloss = 1.14444 %noloadloss = 0.377778  phases=3 
~ wdg = 1 bus = 4901255.1.2.3 kv = 13.8 kva = 45 conn = delta %r = 1.522 tap = 0.9565 
~ wdg = 2 bus = BT_4901255.1.2.3.0 kv = 0.22 kva = 45 conn = wye %r = 1.522 tap = 1

New transformer.868618 xhl = 3.721 windings = 2 %loadloss = 1 %noloadloss = 0.34  phases=3 
~ wdg = 1 bus = 4895473.1.2.3 kv = 13.8 kva = 75 conn = delta %r = 1.34 tap = 0.9565 
~ wdg = 2 bus = BT_4895473.1.2.3.0 kv = 0.22 kva = 75 conn = wye %r = 1.34 tap = 1

New transformer.867624 xhl = 3.805 windings = 2 %loadloss = 0.846667 %noloadloss = 0.28  phases=3 
~ wdg = 1 bus = 4897769.1.2.3 kv = 13.8 kva = 150 conn = delta %r = 1.127 tap = 0.9565 
~ wdg = 2 bus = BT_4897769.1.2.3.0 kv = 0.22 kva = 150 conn = wye %r = 1.127 tap = 1

New transformer.1494649 xhl = 3.721 windings = 2 %loadloss = 1 %noloadloss = 0.34  phases=3 
~ wdg = 1 bus = 5378130.1.2.3 kv = 13.8 kva = 75 conn = delta %r = 1.34 tap = 0.9565 
~ wdg = 2 bus = BT_5378130.1.2.3.0 kv = 0.22 kva = 75 conn = wye %r = 1.34 tap = 1

New transformer.1042925 xhl = 3.636 windings = 2 %loadloss = 1.14444 %noloadloss = 0.377778  phases=3 
~ wdg = 1 bus = 5845590.1.2.3 kv = 13.8 kva = 45 conn = delta %r = 1.522 tap = 0.9565 
~ wdg = 2 bus = BT_5845590.1.2.3.0 kv = 0.22 kva = 45 conn = wye %r = 1.522 tap = 1

New transformer.1038529 xhl = 3.636 windings = 2 %loadloss = 1.14444 %noloadloss = 0.377778  phases=3 
~ wdg = 1 bus = 5845695.1.2.3 kv = 13.8 kva = 45 conn = delta %r = 1.522 tap = 0.9565 
~ wdg = 2 bus = BT_5845695.1.2.3.0 kv = 0.22 kva = 45 conn = wye %r = 1.522 tap = 1

New transformer.1412039 xhl = 3.636 windings = 2 %loadloss = 1.14444 %noloadloss = 0.377778  phases=3 
~ wdg = 1 bus = 5994396.1.2.3 kv = 13.8 kva = 45 conn = delta %r = 1.522 tap = 0.9565 
~ wdg = 2 bus = BT_5994396.1.2.3.0 kv = 0.22 kva = 45 conn = wye %r = 1.522 tap = 1

New transformer.1394274 xhl = 4.864 windings = 2 %loadloss = 0.811111 %noloadloss = 0.248889  phases=3 
~ wdg = 1 bus = 8087123.1.2.3 kv = 13.8 kva = 225 conn = delta %r = 1.06 tap = 0.9565 
~ wdg = 2 bus = BT_8087123.1.2.3.0 kv = 0.22 kva = 225 conn = wye %r = 1.06 tap = 1

New transformer.1494001 xhl = 3.721 windings = 2 %loadloss = 1 %noloadloss = 0.34  phases=3 